data_crystal
 
_cell_length_a    33.591
_cell_length_b    33.551
_cell_length_c    23.109
_cell_angle_alpha 90.000
_cell_angle_beta  90.000
_cell_angle_gamma 90.000
 
_symmetry_space_group_name_Hall 'P 1'
_symmetry_space_group_name_H-M  'P 1'
 
loop_
_symmetry_equiv_pos_as_xyz
 'x,y,z' 
 
loop_
_atom_site_label
_atom_site_type_symbol
_atom_site_fract_x
_atom_site_fract_y
_atom_site_fract_z
_atom_site_charge
Cu_1       Cu        0.228     0.227     0.500   0.00000
Cu_2       Cu        0.176     0.175     0.500   0.00000
Cu_3       Cu        0.341     0.341     0.176   0.00000
Cu_4       Cu        0.378     0.378     0.252   0.00000
Cu_5       Cu        0.499     0.257     0.499   0.00000
Cu_6       Cu        0.499     0.183     0.499   0.00000
O_7        O         0.205     0.042     0.297   0.00000
O_8        O         0.252     0.042     0.225   0.00000
O_9        O         0.256     0.196     0.439   0.00000
O_10       O         0.207     0.148     0.439   0.00000
O_11       O         0.350     0.291     0.220   0.00000
O_12       O         0.384     0.325     0.290   0.00000
O_13       O         0.456     0.186     0.439   0.00000
O_14       O         0.458     0.254     0.436   0.00000
C_15       C         0.258     0.089     0.301   0.00000
C_16       C         0.240     0.109     0.348   0.00000
H_17       H         0.211     0.099     0.364   0.00000
C_18       C         0.259     0.142     0.372   0.00000
C_19       C         0.297     0.154     0.352   0.00000
H_20       H         0.311     0.180     0.371   0.00000
C_21       C         0.315     0.133     0.306   0.00000
C_22       C         0.295     0.101     0.281   0.00000
H_23       H         0.308     0.085     0.244   0.00000
C_24       C         0.379     0.255     0.297   0.00000
C_25       C         0.405     0.256     0.344   0.00000
H_26       H         0.418     0.284     0.359   0.00000
C_27       C         0.416     0.220     0.371   0.00000
C_28       C         0.400     0.184     0.351   0.00000
H_29       H         0.409     0.156     0.372   0.00000
C_30       C         0.373     0.183     0.304   0.00000
C_31       C         0.363     0.219     0.278   0.00000
H_32       H         0.343     0.220     0.241   0.00000
C_33       C         0.356     0.144     0.283   0.00000
H_34       H         0.377     0.120     0.293   0.00000
H_35       H         0.354     0.145     0.235   0.00000
C_36       C         0.237     0.055     0.272   0.00000
C_37       C         0.239     0.164     0.421   0.00000
C_38       C         0.370     0.294     0.267   0.00000
C_39       C         0.446     0.220     0.420   0.00000
O_40       O         0.146     0.958     0.213   0.00000
O_41       O         0.194     0.957     0.142   0.00000
C_42       C         0.162     0.944     0.167   0.00000
C_43       C         0.141     0.910     0.139   0.00000
C_44       C         0.109     0.891     0.166   0.00000
H_45       H         0.098     0.902     0.207   0.00000
C_46       C         0.155     0.895     0.086   0.00000
H_47       H         0.181     0.910     0.066   0.00000
C_48       C         0.137     0.862     0.059   0.00000
C_49       C         0.152     0.848     0.001   0.00000
H_50       H         0.148     0.815     0.001   0.00000
O_51       O         0.394     0.334     0.139   0.00000
O_52       O         0.428     0.366     0.211   0.00000
C_53       C         0.426     0.346     0.164   0.00000
C_54       C         0.465     0.334     0.137   0.00000
C_55       C         0.501     0.345     0.163   0.00000
H_56       H         0.501     0.361     0.204   0.00000
C_57       C         0.465     0.313     0.085   0.00000
H_58       H         0.437     0.306     0.065   0.00000
C_59       C         0.501     0.302     0.058   0.00000
C_60       C         0.500     0.282     0.000   0.00000
H_61       H         0.474     0.262     0.000   0.00000
Cu_62      Cu        0.827     0.000     0.743   0.00000
Cu_63      Cu        0.173     0.000     0.743   0.00000
Cu_64      Cu        0.000     0.827     0.744   0.00000
Cu_65      Cu       -0.000     0.173     0.741   0.00000
Cu_66      Cu        0.173     0.000     0.258   0.00000
Cu_67      Cu        0.827     0.000     0.258   0.00000
Cu_68      Cu       -0.000     0.827     0.258   0.00000
Cu_69      Cu        0.000     0.173     0.259   0.00000
Cu_70      Cu        0.775     0.000     0.820   0.00000
Cu_71      Cu        0.224     0.000     0.820   0.00000
Cu_72      Cu       -0.000     0.776     0.821   0.00000
Cu_73      Cu        0.000     0.224     0.819   0.00000
Cu_74      Cu        0.224    -0.000     0.180   0.00000
Cu_75      Cu        0.776     0.000     0.180   0.00000
Cu_76      Cu       -0.000     0.776     0.181   0.00000
Cu_77      Cu        0.000     0.225     0.181   0.00000
Cu_78      Cu        0.773     0.773     0.501   0.00000
Cu_79      Cu        0.773     0.228     0.500   0.00000
Cu_80      Cu        0.228     0.772     0.500   0.00000
Cu_81      Cu        0.825     0.825     0.500   0.00000
Cu_82      Cu        0.825     0.175     0.500   0.00000
Cu_83      Cu        0.175     0.825     0.500   0.00000
Cu_84      Cu        0.661     0.659     0.178   0.00000
Cu_85      Cu        0.660     0.339     0.178   0.00000
Cu_86      Cu        0.341     0.660     0.177   0.00000
Cu_87      Cu        0.660     0.339     0.822   0.00000
Cu_88      Cu        0.341     0.660     0.822   0.00000
Cu_89      Cu        0.341     0.340     0.822   0.00000
Cu_90      Cu        0.660     0.659     0.822   0.00000
Cu_91      Cu        0.624     0.622     0.254   0.00000
Cu_92      Cu        0.623     0.377     0.254   0.00000
Cu_93      Cu        0.377     0.623     0.253   0.00000
Cu_94      Cu        0.623     0.377     0.745   0.00000
Cu_95      Cu        0.378     0.624     0.746   0.00000
Cu_96      Cu        0.378     0.377     0.746   0.00000
Cu_97      Cu        0.624     0.623     0.745   0.00000
Cu_98      Cu        0.500     0.743     0.500   0.00000
Cu_99      Cu        0.743     0.500     0.500   0.00000
Cu_100     Cu        0.257     0.500     0.500   0.00000
Cu_101     Cu        0.500     0.817     0.500   0.00000
Cu_102     Cu        0.817     0.500     0.500   0.00000
Cu_103     Cu        0.183     0.500     0.500   0.00000
O_104      O         0.794     0.959     0.297   0.00000
O_105      O         0.959     0.206     0.298   0.00000
O_106      O         0.042     0.795     0.297   0.00000
O_107      O         0.795     0.044     0.706   0.00000
O_108      O         0.204     0.958     0.704   0.00000
O_109      O         0.043     0.204     0.703   0.00000
O_110      O         0.958     0.796     0.705   0.00000
O_111      O         0.794     0.959     0.702   0.00000
O_112      O         0.205     0.042     0.703   0.00000
O_113      O         0.042     0.795     0.704   0.00000
O_114      O         0.958     0.206     0.702   0.00000
O_115      O         0.205     0.958     0.297   0.00000
O_116      O         0.796     0.043     0.296   0.00000
O_117      O         0.958     0.796     0.297   0.00000
O_118      O         0.044     0.205     0.295   0.00000
O_119      O         0.748     0.958     0.225   0.00000
O_120      O         0.958     0.252     0.226   0.00000
O_121      O         0.042     0.748     0.226   0.00000
O_122      O         0.746     0.042     0.775   0.00000
O_123      O         0.252     0.958     0.775   0.00000
O_124      O         0.042     0.252     0.773   0.00000
O_125      O         0.958     0.748     0.775   0.00000
O_126      O         0.748     0.958     0.775   0.00000
O_127      O         0.252     0.042     0.775   0.00000
O_128      O         0.042     0.748     0.775   0.00000
O_129      O         0.958     0.252     0.775   0.00000
O_130      O         0.252     0.958     0.225   0.00000
O_131      O         0.748     0.042     0.226   0.00000
O_132      O         0.958     0.748     0.226   0.00000
O_133      O         0.042     0.254     0.225   0.00000
O_134      O         0.746     0.804     0.439   0.00000
O_135      O         0.805     0.256     0.439   0.00000
O_136      O         0.194     0.744     0.441   0.00000
O_137      O         0.746     0.196     0.561   0.00000
O_138      O         0.256     0.806     0.559   0.00000
O_139      O         0.196     0.254     0.561   0.00000
O_140      O         0.804     0.746     0.564   0.00000
O_141      O         0.744     0.806     0.560   0.00000
O_142      O         0.256     0.195     0.561   0.00000
O_143      O         0.196     0.746     0.563   0.00000
O_144      O         0.805     0.256     0.561   0.00000
O_145      O         0.254     0.804     0.437   0.00000
O_146      O         0.746     0.196     0.439   0.00000
O_147      O         0.806     0.746     0.441   0.00000
O_148      O         0.196     0.254     0.439   0.00000
O_149      O         0.794     0.853     0.440   0.00000
O_150      O         0.852     0.206     0.439   0.00000
O_151      O         0.148     0.794     0.439   0.00000
O_152      O         0.794     0.148     0.561   0.00000
O_153      O         0.206     0.852     0.561   0.00000
O_154      O         0.148     0.206     0.560   0.00000
O_155      O         0.852     0.794     0.561   0.00000
O_156      O         0.794     0.852     0.561   0.00000
O_157      O         0.206     0.148     0.561   0.00000
O_158      O         0.148     0.794     0.561   0.00000
O_159      O         0.852     0.206     0.561   0.00000
O_160      O         0.206     0.852     0.439   0.00000
O_161      O         0.794     0.148     0.440   0.00000
O_162      O         0.852     0.796     0.439   0.00000
O_163      O         0.148     0.206     0.439   0.00000
O_164      O         0.650     0.709     0.222   0.00000
O_165      O         0.710     0.350     0.222   0.00000
O_166      O         0.290     0.651     0.222   0.00000
O_167      O         0.650     0.290     0.775   0.00000
O_168      O         0.350     0.710     0.777   0.00000
O_169      O         0.292     0.350     0.777   0.00000
O_170      O         0.710     0.650     0.777   0.00000
O_171      O         0.650     0.710     0.778   0.00000
O_172      O         0.350     0.290     0.778   0.00000
O_173      O         0.291     0.650     0.778   0.00000
O_174      O         0.710     0.350     0.777   0.00000
O_175      O         0.350     0.710     0.222   0.00000
O_176      O         0.652     0.290     0.224   0.00000
O_177      O         0.710     0.651     0.223   0.00000
O_178      O         0.291     0.350     0.222   0.00000
O_179      O         0.618     0.674     0.293   0.00000
O_180      O         0.676     0.384     0.292   0.00000
O_181      O         0.325     0.615     0.290   0.00000
O_182      O         0.615     0.325     0.707   0.00000
O_183      O         0.386     0.676     0.708   0.00000
O_184      O         0.326     0.384     0.708   0.00000
O_185      O         0.676     0.616     0.708   0.00000
O_186      O         0.617     0.676     0.708   0.00000
O_187      O         0.385     0.324     0.709   0.00000
O_188      O         0.326     0.618     0.707   0.00000
O_189      O         0.675     0.383     0.707   0.00000
O_190      O         0.384     0.675     0.292   0.00000
O_191      O         0.616     0.324     0.292   0.00000
O_192      O         0.676     0.614     0.291   0.00000
O_193      O         0.326     0.386     0.289   0.00000
O_194      O         0.542     0.814     0.439   0.00000
O_195      O         0.814     0.458     0.439   0.00000
O_196      O         0.186     0.542     0.439   0.00000
O_197      O         0.542     0.186     0.558   0.00000
O_198      O         0.458     0.814     0.560   0.00000
O_199      O         0.186     0.458     0.561   0.00000
O_200      O         0.814     0.542     0.561   0.00000
O_201      O         0.542     0.814     0.561   0.00000
O_202      O         0.458     0.186     0.561   0.00000
O_203      O         0.186     0.542     0.561   0.00000
O_204      O         0.814     0.458     0.561   0.00000
O_205      O         0.458     0.814     0.439   0.00000
O_206      O         0.540     0.186     0.437   0.00000
O_207      O         0.814     0.542     0.440   0.00000
O_208      O         0.186     0.458     0.439   0.00000
O_209      O         0.542     0.746     0.439   0.00000
O_210      O         0.746     0.458     0.439   0.00000
O_211      O         0.254     0.542     0.439   0.00000
O_212      O         0.540     0.254     0.561   0.00000
O_213      O         0.458     0.746     0.561   0.00000
O_214      O         0.254     0.458     0.561   0.00000
O_215      O         0.746     0.542     0.561   0.00000
O_216      O         0.542     0.746     0.561   0.00000
O_217      O         0.456     0.254     0.558   0.00000
O_218      O         0.254     0.542     0.561   0.00000
O_219      O         0.746     0.458     0.561   0.00000
O_220      O         0.458     0.746     0.439   0.00000
O_221      O         0.542     0.254     0.439   0.00000
O_222      O         0.746     0.542     0.439   0.00000
O_223      O         0.254     0.458     0.440   0.00000
C_224      C         0.742     0.911     0.301   0.00000
C_225      C         0.912     0.258     0.303   0.00000
C_226      C         0.088     0.742     0.302   0.00000
C_227      C         0.742     0.089     0.699   0.00000
C_228      C         0.258     0.912     0.698   0.00000
C_229      C         0.090     0.257     0.699   0.00000
C_230      C         0.911     0.743     0.699   0.00000
C_231      C         0.742     0.912     0.698   0.00000
C_232      C         0.258     0.088     0.698   0.00000
C_233      C         0.089     0.742     0.699   0.00000
C_234      C         0.912     0.259     0.698   0.00000
C_235      C         0.257     0.911     0.301   0.00000
C_236      C         0.743     0.089     0.301   0.00000
C_237      C         0.912     0.743     0.303   0.00000
C_238      C         0.090     0.258     0.301   0.00000
C_239      C         0.760     0.892     0.348   0.00000
C_240      C         0.892     0.240     0.349   0.00000
C_241      C         0.108     0.760     0.349   0.00000
C_242      C         0.761     0.109     0.653   0.00000
C_243      C         0.240     0.892     0.651   0.00000
C_244      C         0.110     0.239     0.652   0.00000
C_245      C         0.891     0.761     0.653   0.00000
C_246      C         0.760     0.892     0.651   0.00000
C_247      C         0.240     0.108     0.652   0.00000
C_248      C         0.109     0.761     0.653   0.00000
C_249      C         0.892     0.240     0.651   0.00000
C_250      C         0.239     0.891     0.347   0.00000
C_251      C         0.761     0.109     0.347   0.00000
C_252      C         0.892     0.761     0.349   0.00000
C_253      C         0.109     0.240     0.347   0.00000
H_254      H         0.789     0.901     0.363   0.00000
H_255      H         0.901     0.211     0.365   0.00000
H_256      H         0.099     0.789     0.365   0.00000
H_257      H         0.790     0.100     0.639   0.00000
H_258      H         0.211     0.901     0.636   0.00000
H_259      H         0.100     0.210     0.637   0.00000
H_260      H         0.901     0.790     0.638   0.00000
H_261      H         0.789     0.902     0.636   0.00000
H_262      H         0.211     0.099     0.636   0.00000
H_263      H         0.099     0.790     0.637   0.00000
H_264      H         0.902     0.211     0.636   0.00000
H_265      H         0.210     0.900     0.363   0.00000
H_266      H         0.790     0.100     0.362   0.00000
H_267      H         0.901     0.790     0.364   0.00000
H_268      H         0.100     0.211     0.362   0.00000
C_269      C         0.741     0.859     0.373   0.00000
C_270      C         0.859     0.259     0.374   0.00000
C_271      C         0.141     0.741     0.374   0.00000
C_272      C         0.741     0.142     0.627   0.00000
C_273      C         0.259     0.860     0.626   0.00000
C_274      C         0.142     0.258     0.627   0.00000
C_275      C         0.859     0.742     0.628   0.00000
C_276      C         0.741     0.860     0.626   0.00000
C_277      C         0.259     0.141     0.626   0.00000
C_278      C         0.142     0.742     0.628   0.00000
C_279      C         0.859     0.259     0.626   0.00000
C_280      C         0.258     0.858     0.372   0.00000
C_281      C         0.742     0.142     0.373   0.00000
C_282      C         0.859     0.742     0.375   0.00000
C_283      C         0.142     0.259     0.373   0.00000
C_284      C         0.704     0.846     0.353   0.00000
C_285      C         0.847     0.297     0.353   0.00000
C_286      C         0.153     0.703     0.354   0.00000
C_287      C         0.703     0.154     0.646   0.00000
C_288      C         0.297     0.848     0.645   0.00000
C_289      C         0.155     0.296     0.647   0.00000
C_290      C         0.847     0.704     0.648   0.00000
C_291      C         0.703     0.847     0.646   0.00000
C_292      C         0.297     0.153     0.646   0.00000
C_293      C         0.154     0.704     0.648   0.00000
C_294      C         0.847     0.297     0.647   0.00000
C_295      C         0.296     0.846     0.352   0.00000
C_296      C         0.704     0.154     0.353   0.00000
C_297      C         0.847     0.704     0.355   0.00000
C_298      C         0.154     0.296     0.353   0.00000
H_299      H         0.690     0.821     0.373   0.00000
H_300      H         0.821     0.311     0.373   0.00000
H_301      H         0.179     0.689     0.374   0.00000
H_302      H         0.689     0.179     0.625   0.00000
H_303      H         0.312     0.823     0.625   0.00000
H_304      H         0.180     0.310     0.627   0.00000
H_305      H         0.821     0.690     0.628   0.00000
H_306      H         0.689     0.822     0.626   0.00000
H_307      H         0.311     0.178     0.626   0.00000
H_308      H         0.180     0.690     0.628   0.00000
H_309      H         0.821     0.311     0.627   0.00000
H_310      H         0.310     0.820     0.372   0.00000
H_311      H         0.690     0.179     0.374   0.00000
H_312      H         0.822     0.690     0.376   0.00000
H_313      H         0.180     0.310     0.374   0.00000
C_314      C         0.685     0.866     0.307   0.00000
C_315      C         0.867     0.316     0.308   0.00000
C_316      C         0.133     0.685     0.308   0.00000
C_317      C         0.684     0.134     0.691   0.00000
C_318      C         0.315     0.868     0.691   0.00000
C_319      C         0.134     0.314     0.693   0.00000
C_320      C         0.867     0.685     0.693   0.00000
C_321      C         0.684     0.868     0.692   0.00000
C_322      C         0.316     0.132     0.692   0.00000
C_323      C         0.134     0.685     0.693   0.00000
C_324      C         0.867     0.316     0.692   0.00000
C_325      C         0.315     0.867     0.307   0.00000
C_326      C         0.685     0.133     0.308   0.00000
C_327      C         0.867     0.685     0.310   0.00000
C_328      C         0.134     0.315     0.308   0.00000
C_329      C         0.705     0.899     0.282   0.00000
C_330      C         0.900     0.296     0.282   0.00000
C_331      C         0.101     0.705     0.282   0.00000
C_332      C         0.704     0.102     0.718   0.00000
C_333      C         0.295     0.900     0.718   0.00000
C_334      C         0.102     0.294     0.718   0.00000
C_335      C         0.899     0.705     0.719   0.00000
C_336      C         0.704     0.900     0.718   0.00000
C_337      C         0.295     0.100     0.718   0.00000
C_338      C         0.101     0.705     0.719   0.00000
C_339      C         0.899     0.296     0.718   0.00000
C_340      C         0.295     0.899     0.282   0.00000
C_341      C         0.705     0.101     0.282   0.00000
C_342      C         0.899     0.705     0.283   0.00000
C_343      C         0.102     0.296     0.282   0.00000
H_344      H         0.691     0.915     0.245   0.00000
H_345      H         0.915     0.309     0.246   0.00000
H_346      H         0.085     0.692     0.246   0.00000
H_347      H         0.690     0.086     0.754   0.00000
H_348      H         0.308     0.915     0.754   0.00000
H_349      H         0.086     0.308     0.754   0.00000
H_350      H         0.915     0.691     0.755   0.00000
H_351      H         0.691     0.915     0.754   0.00000
H_352      H         0.309     0.085     0.754   0.00000
H_353      H         0.086     0.691     0.755   0.00000
H_354      H         0.915     0.309     0.754   0.00000
H_355      H         0.309     0.915     0.246   0.00000
H_356      H         0.692     0.085     0.246   0.00000
H_357      H         0.915     0.691     0.247   0.00000
H_358      H         0.087     0.310     0.246   0.00000
C_359      C         0.621     0.744     0.300   0.00000
C_360      C         0.745     0.379     0.300   0.00000
C_361      C         0.255     0.620     0.299   0.00000
C_362      C         0.620     0.255     0.698   0.00000
C_363      C         0.380     0.746     0.700   0.00000
C_364      C         0.256     0.379     0.700   0.00000
C_365      C         0.745     0.621     0.700   0.00000
C_366      C         0.621     0.745     0.701   0.00000
C_367      C         0.380     0.254     0.700   0.00000
C_368      C         0.256     0.621     0.700   0.00000
C_369      C         0.745     0.379     0.700   0.00000
C_370      C         0.379     0.745     0.300   0.00000
C_371      C         0.621     0.255     0.300   0.00000
C_372      C         0.746     0.620     0.300   0.00000
C_373      C         0.256     0.380     0.299   0.00000
C_374      C         0.594     0.744     0.347   0.00000
C_375      C         0.745     0.406     0.347   0.00000
C_376      C         0.255     0.594     0.346   0.00000
C_377      C         0.593     0.256     0.652   0.00000
C_378      C         0.406     0.745     0.653   0.00000
C_379      C         0.256     0.406     0.653   0.00000
C_380      C         0.745     0.594     0.653   0.00000
C_381      C         0.594     0.745     0.654   0.00000
C_382      C         0.406     0.255     0.653   0.00000
C_383      C         0.256     0.594     0.653   0.00000
C_384      C         0.745     0.406     0.653   0.00000
C_385      C         0.406     0.744     0.347   0.00000
C_386      C         0.594     0.255     0.347   0.00000
C_387      C         0.745     0.594     0.347   0.00000
C_388      C         0.257     0.406     0.346   0.00000
H_389      H         0.581     0.716     0.362   0.00000
H_390      H         0.717     0.418     0.361   0.00000
H_391      H         0.283     0.581     0.361   0.00000
H_392      H         0.580     0.284     0.637   0.00000
H_393      H         0.419     0.717     0.639   0.00000
H_394      H         0.284     0.419     0.638   0.00000
H_395      H         0.717     0.582     0.639   0.00000
H_396      H         0.582     0.717     0.639   0.00000
H_397      H         0.418     0.283     0.638   0.00000
H_398      H         0.284     0.582     0.638   0.00000
H_399      H         0.717     0.418     0.638   0.00000
H_400      H         0.418     0.716     0.362   0.00000
H_401      H         0.581     0.283     0.361   0.00000
H_402      H         0.717     0.581     0.361   0.00000
H_403      H         0.285     0.419     0.361   0.00000
C_404      C         0.583     0.780     0.373   0.00000
C_405      C         0.781     0.417     0.373   0.00000
C_406      C         0.220     0.583     0.373   0.00000
C_407      C         0.583     0.220     0.625   0.00000
C_408      C         0.417     0.781     0.626   0.00000
C_409      C         0.220     0.416     0.627   0.00000
C_410      C         0.781     0.584     0.627   0.00000
C_411      C         0.583     0.781     0.627   0.00000
C_412      C         0.416     0.219     0.626   0.00000
C_413      C         0.220     0.584     0.627   0.00000
C_414      C         0.780     0.416     0.627   0.00000
C_415      C         0.416     0.780     0.373   0.00000
C_416      C         0.583     0.219     0.373   0.00000
C_417      C         0.781     0.583     0.374   0.00000
C_418      C         0.221     0.417     0.373   0.00000
C_419      C         0.600     0.816     0.353   0.00000
C_420      C         0.817     0.400     0.353   0.00000
C_421      C         0.184     0.600     0.353   0.00000
C_422      C         0.599     0.184     0.644   0.00000
C_423      C         0.400     0.817     0.646   0.00000
C_424      C         0.184     0.400     0.647   0.00000
C_425      C         0.817     0.600     0.646   0.00000
C_426      C         0.600     0.817     0.647   0.00000
C_427      C         0.400     0.183     0.646   0.00000
C_428      C         0.184     0.600     0.647   0.00000
C_429      C         0.816     0.400     0.647   0.00000
C_430      C         0.400     0.816     0.353   0.00000
C_431      C         0.599     0.183     0.354   0.00000
C_432      C         0.817     0.600     0.355   0.00000
C_433      C         0.185     0.400     0.354   0.00000
H_434      H         0.591     0.844     0.374   0.00000
H_435      H         0.844     0.409     0.374   0.00000
H_436      H         0.156     0.591     0.374   0.00000
H_437      H         0.590     0.156     0.623   0.00000
H_438      H         0.409     0.844     0.625   0.00000
H_439      H         0.157     0.409     0.626   0.00000
H_440      H         0.844     0.591     0.625   0.00000
H_441      H         0.591     0.844     0.626   0.00000
H_442      H         0.409     0.156     0.625   0.00000
H_443      H         0.156     0.591     0.627   0.00000
H_444      H         0.844     0.409     0.626   0.00000
H_445      H         0.409     0.844     0.374   0.00000
H_446      H         0.590     0.156     0.375   0.00000
H_447      H         0.844     0.591     0.376   0.00000
H_448      H         0.157     0.409     0.376   0.00000
C_449      C         0.627     0.817     0.307   0.00000
C_450      C         0.818     0.374     0.307   0.00000
C_451      C         0.183     0.626     0.306   0.00000
C_452      C         0.626     0.183     0.691   0.00000
C_453      C         0.374     0.818     0.692   0.00000
C_454      C         0.184     0.373     0.693   0.00000
C_455      C         0.818     0.626     0.693   0.00000
C_456      C         0.626     0.818     0.693   0.00000
C_457      C         0.374     0.182     0.693   0.00000
C_458      C         0.184     0.627     0.694   0.00000
C_459      C         0.817     0.374     0.693   0.00000
C_460      C         0.373     0.817     0.307   0.00000
C_461      C         0.626     0.182     0.308   0.00000
C_462      C         0.818     0.627     0.308   0.00000
C_463      C         0.184     0.374     0.307   0.00000
C_464      C         0.637     0.780     0.280   0.00000
C_465      C         0.782     0.363     0.280   0.00000
C_466      C         0.219     0.636     0.280   0.00000
C_467      C         0.636     0.219     0.718   0.00000
C_468      C         0.363     0.782     0.719   0.00000
C_469      C         0.220     0.363     0.719   0.00000
C_470      C         0.782     0.637     0.720   0.00000
C_471      C         0.637     0.782     0.720   0.00000
C_472      C         0.364     0.218     0.720   0.00000
C_473      C         0.220     0.637     0.720   0.00000
C_474      C         0.781     0.363     0.720   0.00000
C_475      C         0.363     0.781     0.281   0.00000
C_476      C         0.637     0.219     0.281   0.00000
C_477      C         0.782     0.637     0.281   0.00000
C_478      C         0.220     0.364     0.280   0.00000
H_479      H         0.657     0.780     0.244   0.00000
H_480      H         0.781     0.343     0.243   0.00000
H_481      H         0.219     0.657     0.243   0.00000
H_482      H         0.656     0.219     0.754   0.00000
H_483      H         0.343     0.782     0.756   0.00000
H_484      H         0.221     0.342     0.756   0.00000
H_485      H         0.781     0.657     0.756   0.00000
H_486      H         0.657     0.781     0.757   0.00000
H_487      H         0.344     0.218     0.757   0.00000
H_488      H         0.220     0.657     0.757   0.00000
H_489      H         0.781     0.343     0.756   0.00000
H_490      H         0.343     0.780     0.244   0.00000
H_491      H         0.658     0.219     0.245   0.00000
H_492      H         0.781     0.657     0.244   0.00000
H_493      H         0.220     0.343     0.243   0.00000
C_494      C         0.644     0.855     0.285   0.00000
C_495      C         0.856     0.357     0.285   0.00000
C_496      C         0.144     0.644     0.285   0.00000
C_497      C         0.643     0.144     0.712   0.00000
C_498      C         0.357     0.857     0.714   0.00000
C_499      C         0.145     0.356     0.715   0.00000
C_500      C         0.857     0.643     0.715   0.00000
C_501      C         0.643     0.856     0.715   0.00000
C_502      C         0.357     0.143     0.714   0.00000
C_503      C         0.145     0.644     0.716   0.00000
C_504      C         0.856     0.357     0.715   0.00000
C_505      C         0.356     0.856     0.285   0.00000
C_506      C         0.644     0.144     0.286   0.00000
C_507      C         0.856     0.644     0.287   0.00000
C_508      C         0.145     0.357     0.286   0.00000
H_509      H         0.623     0.880     0.296   0.00000
H_510      H         0.881     0.377     0.295   0.00000
H_511      H         0.120     0.623     0.295   0.00000
H_512      H         0.623     0.120     0.700   0.00000
H_513      H         0.377     0.881     0.702   0.00000
H_514      H         0.121     0.376     0.704   0.00000
H_515      H         0.881     0.623     0.703   0.00000
H_516      H         0.623     0.881     0.704   0.00000
H_517      H         0.377     0.119     0.703   0.00000
H_518      H         0.120     0.623     0.705   0.00000
H_519      H         0.880     0.377     0.705   0.00000
H_520      H         0.376     0.880     0.296   0.00000
H_521      H         0.624     0.119     0.298   0.00000
H_522      H         0.881     0.623     0.298   0.00000
H_523      H         0.121     0.377     0.298   0.00000
H_524      H         0.645     0.854     0.237   0.00000
H_525      H         0.855     0.355     0.237   0.00000
H_526      H         0.145     0.645     0.237   0.00000
H_527      H         0.643     0.144     0.760   0.00000
H_528      H         0.356     0.856     0.761   0.00000
H_529      H         0.146     0.355     0.762   0.00000
H_530      H         0.856     0.644     0.762   0.00000
H_531      H         0.645     0.856     0.762   0.00000
H_532      H         0.356     0.144     0.762   0.00000
H_533      H         0.146     0.645     0.763   0.00000
H_534      H         0.855     0.355     0.763   0.00000
H_535      H         0.355     0.855     0.238   0.00000
H_536      H         0.645     0.144     0.239   0.00000
H_537      H         0.856     0.645     0.239   0.00000
H_538      H         0.146     0.356     0.239   0.00000
C_539      C         0.763     0.946     0.272   0.00000
C_540      C         0.946     0.237     0.273   0.00000
C_541      C         0.055     0.763     0.273   0.00000
C_542      C         0.763     0.056     0.729   0.00000
C_543      C         0.236     0.945     0.728   0.00000
C_544      C         0.055     0.236     0.727   0.00000
C_545      C         0.945     0.764     0.729   0.00000
C_546      C         0.763     0.946     0.727   0.00000
C_547      C         0.237     0.055     0.728   0.00000
C_548      C         0.055     0.763     0.728   0.00000
C_549      C         0.946     0.237     0.727   0.00000
C_550      C         0.237     0.945     0.272   0.00000
C_551      C         0.764     0.055     0.272   0.00000
C_552      C         0.945     0.764     0.273   0.00000
C_553      C         0.056     0.238     0.272   0.00000
C_554      C         0.762     0.837     0.421   0.00000
C_555      C         0.837     0.239     0.421   0.00000
C_556      C         0.163     0.761     0.422   0.00000
C_557      C         0.762     0.164     0.579   0.00000
C_558      C         0.239     0.837     0.578   0.00000
C_559      C         0.164     0.238     0.579   0.00000
C_560      C         0.836     0.762     0.580   0.00000
C_561      C         0.761     0.837     0.579   0.00000
C_562      C         0.239     0.163     0.579   0.00000
C_563      C         0.164     0.762     0.580   0.00000
C_564      C         0.837     0.239     0.579   0.00000
C_565      C         0.238     0.836     0.420   0.00000
C_566      C         0.762     0.164     0.421   0.00000
C_567      C         0.837     0.762     0.422   0.00000
C_568      C         0.164     0.238     0.421   0.00000
C_569      C         0.631     0.706     0.269   0.00000
C_570      C         0.707     0.370     0.269   0.00000
C_571      C         0.293     0.629     0.268   0.00000
C_572      C         0.629     0.293     0.729   0.00000
C_573      C         0.371     0.708     0.731   0.00000
C_574      C         0.294     0.370     0.731   0.00000
C_575      C         0.707     0.630     0.731   0.00000
C_576      C         0.630     0.707     0.731   0.00000
C_577      C         0.371     0.293     0.732   0.00000
C_578      C         0.294     0.631     0.731   0.00000
C_579      C         0.707     0.370     0.731   0.00000
C_580      C         0.370     0.707     0.269   0.00000
C_581      C         0.631     0.293     0.270   0.00000
C_582      C         0.708     0.629     0.269   0.00000
C_583      C         0.294     0.371     0.268   0.00000
C_584      C         0.553     0.780     0.421   0.00000
C_585      C         0.780     0.447     0.421   0.00000
C_586      C         0.220     0.553     0.421   0.00000
C_587      C         0.552     0.220     0.577   0.00000
C_588      C         0.447     0.780     0.578   0.00000
C_589      C         0.220     0.447     0.579   0.00000
C_590      C         0.780     0.553     0.579   0.00000
C_591      C         0.553     0.780     0.579   0.00000
C_592      C         0.446     0.220     0.578   0.00000
C_593      C         0.220     0.554     0.579   0.00000
C_594      C         0.780     0.447     0.579   0.00000
C_595      C         0.447     0.780     0.421   0.00000
C_596      C         0.552     0.220     0.420   0.00000
C_597      C         0.780     0.553     0.422   0.00000
C_598      C         0.220     0.447     0.421   0.00000
O_599      O         0.854     0.042     0.212   0.00000
O_600      O         0.042     0.145     0.214   0.00000
O_601      O         0.958     0.854     0.213   0.00000
O_602      O         0.854     0.956     0.785   0.00000
O_603      O         0.146     0.044     0.787   0.00000
O_604      O         0.956     0.146     0.784   0.00000
O_605      O         0.044     0.854     0.787   0.00000
O_606      O         0.854     0.042     0.788   0.00000
O_607      O         0.146     0.958     0.788   0.00000
O_608      O         0.958     0.854     0.789   0.00000
O_609      O         0.042     0.146     0.788   0.00000
O_610      O         0.146     0.044     0.214   0.00000
O_611      O         0.854     0.956     0.215   0.00000
O_612      O         0.042     0.854     0.214   0.00000
O_613      O         0.957     0.146     0.216   0.00000
O_614      O         0.806     0.044     0.142   0.00000
O_615      O         0.044     0.194     0.144   0.00000
O_616      O         0.957     0.806     0.142   0.00000
O_617      O         0.808     0.958     0.858   0.00000
O_618      O         0.192     0.042     0.859   0.00000
O_619      O         0.958     0.192     0.858   0.00000
O_620      O         0.042     0.808     0.859   0.00000
O_621      O         0.806     0.044     0.858   0.00000
O_622      O         0.193     0.958     0.859   0.00000
O_623      O         0.957     0.806     0.860   0.00000
O_624      O         0.043     0.194     0.858   0.00000
O_625      O         0.192     0.042     0.142   0.00000
O_626      O         0.808     0.958     0.142   0.00000
O_627      O         0.042     0.807     0.142   0.00000
O_628      O         0.958     0.192     0.143   0.00000
C_629      C         0.838     0.056     0.166   0.00000
C_630      C         0.056     0.162     0.168   0.00000
C_631      C         0.944     0.838     0.167   0.00000
C_632      C         0.839     0.944     0.833   0.00000
C_633      C         0.161     0.056     0.834   0.00000
C_634      C         0.944     0.161     0.832   0.00000
C_635      C         0.056     0.839     0.834   0.00000
C_636      C         0.838     0.056     0.834   0.00000
C_637      C         0.162     0.945     0.835   0.00000
C_638      C         0.944     0.838     0.835   0.00000
C_639      C         0.056     0.162     0.833   0.00000
C_640      C         0.161     0.056     0.167   0.00000
C_641      C         0.839     0.944     0.168   0.00000
C_642      C         0.055     0.838     0.167   0.00000
C_643      C         0.945     0.161     0.168   0.00000
C_644      C         0.859     0.090     0.138   0.00000
C_645      C         0.090     0.142     0.139   0.00000
C_646      C         0.910     0.859     0.138   0.00000
C_647      C         0.859     0.910     0.861   0.00000
C_648      C         0.141     0.091     0.862   0.00000
C_649      C         0.910     0.141     0.861   0.00000
C_650      C         0.091     0.859     0.862   0.00000
C_651      C         0.859     0.090     0.862   0.00000
C_652      C         0.142     0.910     0.863   0.00000
C_653      C         0.910     0.859     0.863   0.00000
C_654      C         0.091     0.142     0.862   0.00000
C_655      C         0.141     0.091     0.139   0.00000
C_656      C         0.859     0.910     0.139   0.00000
C_657      C         0.090     0.859     0.139   0.00000
C_658      C         0.910     0.142     0.140   0.00000
C_659      C         0.891     0.109     0.166   0.00000
C_660      C         0.109     0.109     0.165   0.00000
C_661      C         0.891     0.891     0.166   0.00000
C_662      C         0.891     0.891     0.835   0.00000
C_663      C         0.109     0.109     0.835   0.00000
C_664      C         0.891     0.109     0.834   0.00000
C_665      C         0.109     0.892     0.836   0.00000
H_666      H         0.902     0.098     0.207   0.00000
H_667      H         0.098     0.098     0.207   0.00000
H_668      H         0.902     0.902     0.207   0.00000
H_669      H         0.902     0.902     0.794   0.00000
H_670      H         0.098     0.098     0.794   0.00000
H_671      H         0.902     0.098     0.793   0.00000
H_672      H         0.098     0.903     0.795   0.00000
C_673      C         0.846     0.105     0.085   0.00000
C_674      C         0.105     0.156     0.086   0.00000
C_675      C         0.895     0.845     0.085   0.00000
C_676      C         0.844     0.895     0.914   0.00000
C_677      C         0.156     0.106     0.915   0.00000
C_678      C         0.896     0.156     0.914   0.00000
C_679      C         0.105     0.844     0.915   0.00000
C_680      C         0.845     0.105     0.915   0.00000
C_681      C         0.156     0.895     0.916   0.00000
C_682      C         0.895     0.845     0.916   0.00000
C_683      C         0.105     0.156     0.915   0.00000
C_684      C         0.155     0.105     0.086   0.00000
C_685      C         0.844     0.895     0.086   0.00000
C_686      C         0.105     0.844     0.086   0.00000
C_687      C         0.896     0.156     0.086   0.00000
H_688      H         0.820     0.090     0.064   0.00000
H_689      H         0.090     0.181     0.066   0.00000
H_690      H         0.910     0.820     0.065   0.00000
H_691      H         0.819     0.910     0.934   0.00000
H_692      H         0.181     0.091     0.935   0.00000
H_693      H         0.911     0.181     0.933   0.00000
H_694      H         0.091     0.819     0.935   0.00000
H_695      H         0.820     0.090     0.936   0.00000
H_696      H         0.181     0.910     0.936   0.00000
H_697      H         0.910     0.820     0.937   0.00000
H_698      H         0.090     0.182     0.935   0.00000
H_699      H         0.181     0.091     0.066   0.00000
H_700      H         0.819     0.910     0.067   0.00000
H_701      H         0.090     0.819     0.066   0.00000
H_702      H         0.911     0.181     0.067   0.00000
C_703      C         0.864     0.138     0.058   0.00000
C_704      C         0.137     0.138     0.059   0.00000
C_705      C         0.862     0.863     0.059   0.00000
C_706      C         0.862     0.863     0.942   0.00000
C_707      C         0.137     0.138     0.942   0.00000
C_708      C         0.864     0.138     0.942   0.00000
C_709      C         0.138     0.863     0.942   0.00000
C_710      C         0.850     0.153     0.000   0.00000
C_711      C         0.152     0.153     0.001   0.00000
C_712      C         0.847     0.849     0.000   0.00000
H_713      H         0.855     0.185    -0.000   0.00000
H_714      H         0.184     0.149     0.001   0.00000
H_715      H         0.815     0.853     0.001   0.00000
H_716      H         0.851     0.816     0.000   0.00000
H_717      H         0.147     0.186     0.001   0.00000
H_718      H         0.817     0.150     0.000   0.00000
H_719      H         0.185     0.852     0.001   0.00000
O_720      O         0.608     0.666     0.141   0.00000
O_721      O         0.668     0.392     0.140   0.00000
O_722      O         0.332     0.608     0.139   0.00000
O_723      O         0.607     0.331     0.860   0.00000
O_724      O         0.394     0.669     0.858   0.00000
O_725      O         0.333     0.394     0.859   0.00000
O_726      O         0.668     0.606     0.859   0.00000
O_727      O         0.608     0.666     0.861   0.00000
O_728      O         0.394     0.332     0.859   0.00000
O_729      O         0.334     0.607     0.859   0.00000
O_730      O         0.668     0.392     0.859   0.00000
O_731      O         0.394     0.668     0.141   0.00000
O_732      O         0.607     0.330     0.142   0.00000
O_733      O         0.669     0.606     0.142   0.00000
O_734      O         0.332     0.394     0.139   0.00000
O_735      O         0.574     0.633     0.211   0.00000
O_736      O         0.634     0.426     0.211   0.00000
O_737      O         0.367     0.574     0.208   0.00000
O_738      O         0.574     0.366     0.790   0.00000
O_739      O         0.428     0.634     0.789   0.00000
O_740      O         0.368     0.426     0.789   0.00000
O_741      O         0.634     0.573     0.788   0.00000
O_742      O         0.574     0.634     0.788   0.00000
O_743      O         0.428     0.366     0.789   0.00000
O_744      O         0.368     0.574     0.788   0.00000
O_745      O         0.634     0.426     0.788   0.00000
O_746      O         0.428     0.634     0.211   0.00000
O_747      O         0.574     0.366     0.211   0.00000
O_748      O         0.634     0.572     0.211   0.00000
O_749      O         0.368     0.428     0.208   0.00000
C_750      C         0.576     0.654     0.165   0.00000
C_751      C         0.655     0.424     0.164   0.00000
C_752      C         0.345     0.576     0.163   0.00000
C_753      C         0.576     0.344     0.836   0.00000
C_754      C         0.426     0.655     0.835   0.00000
C_755      C         0.346     0.425     0.834   0.00000
C_756      C         0.655     0.575     0.834   0.00000
C_757      C         0.576     0.654     0.835   0.00000
C_758      C         0.426     0.345     0.835   0.00000
C_759      C         0.347     0.576     0.834   0.00000
C_760      C         0.654     0.424     0.835   0.00000
C_761      C         0.426     0.655     0.165   0.00000
C_762      C         0.576     0.344     0.165   0.00000
C_763      C         0.655     0.574     0.166   0.00000
C_764      C         0.346     0.426     0.163   0.00000
C_765      C         0.537     0.665     0.138   0.00000
C_766      C         0.665     0.463     0.136   0.00000
C_767      C         0.334     0.537     0.135   0.00000
C_768      C         0.537     0.334     0.863   0.00000
C_769      C         0.465     0.666     0.863   0.00000
C_770      C         0.336     0.464     0.861   0.00000
C_771      C         0.665     0.535     0.862   0.00000
C_772      C         0.537     0.665     0.863   0.00000
C_773      C         0.465     0.334     0.862   0.00000
C_774      C         0.336     0.536     0.861   0.00000
C_775      C         0.665     0.463     0.862   0.00000
C_776      C         0.465     0.665     0.138   0.00000
C_777      C         0.537     0.334     0.137   0.00000
C_778      C         0.666     0.535     0.137   0.00000
C_779      C         0.335     0.465     0.136   0.00000
C_780      C         0.501     0.654     0.164   0.00000
C_781      C         0.655     0.499     0.163   0.00000
C_782      C         0.345     0.501     0.162   0.00000
C_783      C         0.501     0.344     0.836   0.00000
C_784      C         0.501     0.655     0.836   0.00000
C_785      C         0.346     0.500     0.835   0.00000
C_786      C         0.654     0.499     0.836   0.00000
H_787      H         0.501     0.639     0.205   0.00000
H_788      H         0.639     0.499     0.204   0.00000
H_789      H         0.361     0.502     0.203   0.00000
H_790      H         0.501     0.361     0.796   0.00000
H_791      H         0.501     0.639     0.795   0.00000
H_792      H         0.362     0.500     0.794   0.00000
H_793      H         0.638     0.499     0.795   0.00000
C_794      C         0.537     0.686     0.085   0.00000
C_795      C         0.686     0.463     0.084   0.00000
C_796      C         0.313     0.537     0.083   0.00000
C_797      C         0.537     0.313     0.916   0.00000
C_798      C         0.465     0.686     0.915   0.00000
C_799      C         0.314     0.465     0.914   0.00000
C_800      C         0.686     0.535     0.914   0.00000
C_801      C         0.537     0.685     0.915   0.00000
C_802      C         0.465     0.313     0.915   0.00000
C_803      C         0.314     0.536     0.913   0.00000
C_804      C         0.686     0.463     0.915   0.00000
C_805      C         0.466     0.686     0.085   0.00000
C_806      C         0.537     0.313     0.085   0.00000
C_807      C         0.686     0.535     0.085   0.00000
C_808      C         0.314     0.465     0.083   0.00000
H_809      H         0.566     0.693     0.065   0.00000
H_810      H         0.693     0.435     0.063   0.00000
H_811      H         0.306     0.565     0.063   0.00000
H_812      H         0.565     0.305     0.936   0.00000
H_813      H         0.437     0.694     0.935   0.00000
H_814      H         0.307     0.436     0.934   0.00000
H_815      H         0.694     0.563     0.934   0.00000
H_816      H         0.566     0.693     0.935   0.00000
H_817      H         0.436     0.305     0.935   0.00000
H_818      H         0.307     0.565     0.933   0.00000
H_819      H         0.693     0.435     0.935   0.00000
H_820      H         0.437     0.694     0.065   0.00000
H_821      H         0.565     0.305     0.065   0.00000
H_822      H         0.694     0.563     0.065   0.00000
H_823      H         0.306     0.436     0.064   0.00000
C_824      C         0.501     0.696     0.058   0.00000
C_825      C         0.696     0.499     0.058   0.00000
C_826      C         0.303     0.501     0.057   0.00000
C_827      C         0.501     0.302     0.942   0.00000
C_828      C         0.501     0.696     0.942   0.00000
C_829      C         0.304     0.500     0.940   0.00000
C_830      C         0.696     0.499     0.941   0.00000
C_831      C         0.501     0.717     0.000   0.00000
C_832      C         0.717     0.499    -0.001   0.00000
C_833      C         0.283     0.501    -0.002   0.00000
H_834      H         0.527     0.737     0.000   0.00000
H_835      H         0.737     0.473    -0.001   0.00000
H_836      H         0.263     0.527    -0.002   0.00000
H_837      H         0.526     0.261     0.000   0.00000
H_838      H         0.476     0.737     0.000   0.00000
H_839      H         0.262     0.475    -0.002   0.00000
H_840      H         0.737     0.525    -0.001   0.00000
