
#######################################################################
#
#                 Cambridge Crystallographic Data Centre
#                                CCDC 
#
#######################################################################
#
# If this CIF has been generated from an entry in the Cambridge 
# Structural Database, then it will include bibliographic, chemical, 
# crystal, experimental, refinement or atomic coordinate data resulting 
# from the CCDC's data processing and validation procedures.
#
#######################################################################

data_CPM-80-Zn
_symmetry_cell_setting           rhombohedral
_symmetry_space_group_name_H-M   'R 3 m'
_symmetry_Int_Tables_number      160
_space_group_name_Hall           'R 3 -2"'
loop_
_symmetry_equiv_pos_site_id
_symmetry_equiv_pos_as_xyz
1 x,y,z
2 -y,x-y,z
3 -x+y,-x,z
4 -y,-x,z
5 x,x-y,z
6 -x+y,y,z
7 2/3+x,1/3+y,1/3+z
8 2/3-y,1/3+x-y,1/3+z
9 2/3-x+y,1/3-x,1/3+z
10 2/3-y,1/3-x,1/3+z
11 2/3+x,1/3+x-y,1/3+z
12 2/3-x+y,1/3+y,1/3+z
13 1/3+x,2/3+y,2/3+z
14 1/3-y,2/3+x-y,2/3+z
15 1/3-x+y,2/3-x,2/3+z
16 1/3-y,2/3-x,2/3+z
17 1/3+x,2/3+x-y,2/3+z
18 1/3-x+y,2/3+y,2/3+z
_cell_length_a                   32.623(2)
_cell_length_b                   32.623(2)
_cell_length_c                   11.677(2)
_cell_angle_alpha                90.00
_cell_angle_beta                 90.00
_cell_angle_gamma                120.00
_cell_volume                     10762.4
loop_
_atom_site_label
_atom_site_type_symbol
_atom_site_fract_x
_atom_site_fract_y
_atom_site_fract_z
Zn1 Zn 0.22437(8) 0.05530(8) 0.7819(2)
Zn2 Zn 0.22442(11) 0.11221(5) 1.0289(3)
S1 S 0.07417(15) -0.07417(15) 0.8938(6)
O7 O 0.2238(5) 0.1119(2) 0.8555(13)
O6 O 0.1713(6) 0.0431(6) 1.0290(15)
O5 O 0.2855(5) 0.0738(6) 0.8527(13)
O4 O 0.1639(5) 0.0126(5) 0.8590(12)
O2 O 0.2240(6) 0.0775(5) 0.6262(11)
O1 O 0.2792(6) 0.0968(5) 1.0261(14)
N1 N 0.4373(8) 0.1079(6) 1.0458(15)
N2 N 0.2254(7) 0.1127(4) 0.206(2)
C12 C 0.1046(8) -0.0283(7) 0.989(2)
C11 C 0.1509(8) 0.0127(8) 0.960(2)
C9 C 0.3697(12) 0.1211(12) 1.075(3)
H9 H 0.3557 0.1348 1.1177
C8 C 0.2986(8) 0.0876(8) 0.952(2)
C7 C 0.0801(12) -0.0340(10) 1.087(2)
H7 H 0.0906 -0.0122 1.1472
C6 C 0.3485(8) 0.0959(9) 0.9825(18)
C5 C 0.4159(18) 0.1270(13) 1.107(3)
H5 H 0.4309 0.1446 1.1725
C3 C 0.4164(16) 0.0880(12) 0.947(2)
H3 H 0.4325 0.0797 0.8950
C2 C 0.3723(11) 0.0795(12) 0.921(2)
H2 H 0.3576 0.0612 0.8568
C13 C 0.2242(10) 0.1121(5) 0.579(2)
C1 C 0.2239(12) 0.1120(6) 0.453(2)
C4 C 0.2228(10) 0.1431(17) 0.394(4)
H4 H 0.2228 0.1681 0.4326
C14 C 0.2217(12) 0.1436(14) 0.265(4)
H14 H 0.2181 0.1669 0.2283
O6 O -0.0431(6) -0.1713(6) 1.0290(15)
O4 O -0.0126(5) -0.1639(5) 0.8590(12)
C12 C 0.0283(7) -0.1046(8) 0.989(2)
C11 C -0.0127(8) -0.1509(8) 0.960(2)
C7 C 0.0340(10) -0.0801(12) 1.087(2)
H7 H 0.0122 -0.0906 1.1472
O2 O 0.2240(6) 0.1465(8) 0.6262(11)
C4 C 0.2228(10) 0.0797(20) 0.394(4)
H4 H 0.2228 0.0547 0.4326
C14 C 0.2217(12) 0.0781(18) 0.265(4)
H14 H 0.2181 0.0512 0.2283
Zn1 Zn 0.27803(8) -0.16426(11) 0.4486(2)
O5 O 0.2595(6) -0.1216(8) 0.5194(13)
O1 O 0.2365(5) -0.1509(8) 0.6928(14)
N1 N 0.2254(6) -0.0040(10) 0.7125(15)
C9 C 0.2122(12) -0.0847(17) 0.742(3)
H9 H 0.1985 -0.1124 0.7844
C8 C 0.2457(8) -0.1223(11) 0.619(2)
C6 C 0.2374(9) -0.0807(12) 0.6492(18)
C5 C 0.2063(13) -0.0445(22) 0.774(3)
H5 H 0.1887 -0.0471 0.8392
C3 C 0.2453(12) -0.0050(20) 0.614(2)
H3 H 0.2536 0.0194 0.5617
C2 C 0.2538(12) -0.0405(16) 0.588(2)
H2 H 0.2721 -0.0369 0.5235
Zn1 Zn -0.05530(8) -0.22437(8) 0.7819(2)
Zn1 Zn 0.22437(8) 0.16907(11) 0.7819(2)
Zn1 Zn 0.49760(11) 0.10896(8) 1.1152(2)
Zn2 Zn 0.22442(11) 0.11221(5) 0.0289(3)
Zn2 Zn -0.11221(12) -0.22442(11) 1.0289(3)
Zn2 Zn 0.22112(5) -0.22112(12) 0.6956(3)
O7 O 0.2214(2) -0.2214(5) 0.5222(13)
O6 O 0.1713(6) 0.1282(8) 1.0290(15)
O4 O 0.3207(5) -0.1820(7) 0.5257(12)
O2 O 0.2558(5) -0.1868(8) 0.2929(11)
O1 O 0.2792(6) 0.1824(8) 1.0261(14)
N1 N 0.3373(10) -0.1039(8) 0.3792(15)
N2 N 0.2254(7) 0.1127(4) 1.206(2)
H15 H 0.188652 0.0943262 0.855547
Zn1 Zn 0.94470(8) 0.16907(11) 0.7819(2)
Zn2 Zn 0.88779(5) 0.11221(12) 1.0289(3)
S1 S 1.07417(15) 0.14834(21) 0.8938(6)
O7 O 0.8881(2) 0.1119(5) 0.8555(13)
O6 O 0.9569(6) 0.1282(8) 1.0290(15)
O5 O 0.9262(6) 0.2117(8) 0.8527(13)
O4 O 0.9874(5) 0.1513(7) 0.8590(12)
O2 O 0.9225(5) 0.1465(8) 0.6262(11)
O1 O 0.9032(5) 0.1824(8) 1.0261(14)
N1 N 0.8921(6) 0.3293(10) 1.0458(15)
N2 N 0.8873(4) 0.1127(8) 0.206(2)
C12 C 1.0283(7) 0.1329(11) 0.989(2)
C11 C 0.9873(8) 0.1382(11) 0.960(2)
C9 C 0.8789(12) 0.2486(17) 1.075(3)
H9 H 0.8652 0.2209 1.1177
C8 C 0.9124(8) 0.2110(11) 0.952(2)
C7 C 1.0340(10) 0.1141(16) 1.087(2)
H7 H 1.0122 0.1028 1.1472
C6 C 0.9041(9) 0.2526(12) 0.9825(18)
C5 C 0.8730(13) 0.2888(22) 1.107(3)
H5 H 0.8554 0.2862 1.1725
C3 C 0.9120(12) 0.3283(20) 0.947(2)
H3 H 0.9203 0.3527 0.8950
C2 C 0.9205(12) 0.2928(16) 0.921(2)
H2 H 0.9388 0.2964 0.8568
C13 C 0.8879(5) 0.1121(11) 0.579(2)
C1 C 0.8880(6) 0.1119(13) 0.453(2)
C4 C 0.8569(17) 0.0797(20) 0.394(4)
H4 H 0.8319 0.0547 0.4326
C14 C 0.8564(14) 0.0781(18) 0.265(4)
H14 H 0.8331 0.0512 0.2283
O6 O 1.1713(6) 0.1282(8) 1.0290(15)
O4 O 1.1639(5) 0.1513(7) 0.8590(12)
C12 C 1.1046(8) 0.1329(11) 0.989(2)
C11 C 1.1509(8) 0.1382(11) 0.960(2)
C7 C 1.0801(12) 0.1141(16) 1.087(2)
H7 H 1.0906 0.1028 1.1472
O2 O 0.8535(8) 0.0775(10) 0.6262(11)
C4 C 0.9203(20) 0.1431(22) 0.394(4)
H4 H 0.9453 0.1681 0.4326
C14 C 0.9219(18) 0.1436(22) 0.265(4)
H14 H 0.9488 0.1669 0.2283
Zn1 Zn 1.16426(11) 0.44230(14) 0.4486(2)
O5 O 1.1216(8) 0.3812(10) 0.5194(13)
O1 O 1.1509(8) 0.3875(9) 0.6928(14)
N1 N 1.0040(10) 0.2294(12) 0.7125(15)
C9 C 1.0847(17) 0.2970(21) 0.742(3)
H9 H 1.1124 0.3110 0.7844
C8 C 1.1223(11) 0.3681(14) 0.619(2)
C6 C 1.0807(12) 0.3182(15) 0.6492(18)
C5 C 1.0445(22) 0.2508(26) 0.774(3)
H5 H 1.0471 0.2358 0.8392
C3 C 1.0050(20) 0.2503(23) 0.614(2)
H3 H 0.9806 0.2342 0.5617
C2 C 1.0405(16) 0.2944(20) 0.588(2)
H2 H 1.0369 0.3091 0.5235
Zn1 Zn 1.22437(8) 0.16907(11) 0.7819(2)
Zn1 Zn 0.83093(11) 0.05530(14) 0.7819(2)
Zn1 Zn 0.89104(8) 0.38863(14) 1.1152(2)
Zn2 Zn 0.88779(5) 0.11221(12) 0.0289(3)
Zn2 Zn 1.22442(11) 0.11221(16) 1.0289(3)
Zn2 Zn 1.22112(12) 0.44225(13) 0.6956(3)
O7 O 1.2214(5) 0.4429(5) 0.5222(13)
O6 O 0.8718(8) 0.0431(10) 1.0290(15)
O4 O 1.1820(7) 0.5028(9) 0.5257(12)
O2 O 1.1868(8) 0.4427(9) 0.2929(11)
O1 O 0.8176(8) 0.0968(10) 1.0261(14)
N1 N 1.1039(8) 0.4413(13) 0.3792(15)
N2 N 0.8873(4) 0.1127(8) 1.206(2)
H15 H 0.905674 0.0943262 0.855547
Zn1 Zn 0.83093(11) 0.77563(8) 0.7819(2)
Zn2 Zn 0.88779(12) 0.77558(11) 1.0289(3)
S1 S 0.85166(21) 0.92583(15) 0.8938(6)
O7 O 0.8881(5) 0.7762(5) 0.8555(13)
O6 O 0.8718(8) 0.8287(6) 1.0290(15)
O5 O 0.7883(8) 0.7145(5) 0.8527(13)
O4 O 0.8487(7) 0.8361(5) 0.8590(12)
O2 O 0.8535(8) 0.7760(6) 0.6262(11)
O1 O 0.8176(8) 0.7208(6) 1.0261(14)
N1 N 0.6707(10) 0.5627(8) 1.0458(15)
N2 N 0.8873(8) 0.7746(7) 0.206(2)
C12 C 0.8671(11) 0.8954(8) 0.989(2)
C11 C 0.8618(11) 0.8491(8) 0.960(2)
C9 C 0.7514(17) 0.6303(12) 1.075(3)
H9 H 0.7791 0.6443 1.1177
C8 C 0.7890(11) 0.7014(8) 0.952(2)
C7 C 0.8859(16) 0.9199(12) 1.087(2)
H7 H 0.8972 0.9094 1.1472
C6 C 0.7474(12) 0.6515(8) 0.9825(18)
C5 C 0.7112(22) 0.5841(18) 1.107(3)
H5 H 0.7138 0.5691 1.1725
C3 C 0.6717(20) 0.5836(16) 0.947(2)
H3 H 0.6473 0.5675 0.8950
C2 C 0.7072(16) 0.6277(11) 0.921(2)
H2 H 0.7036 0.6424 0.8568
C13 C 0.8879(11) 0.7758(10) 0.579(2)
C1 C 0.8881(13) 0.7761(12) 0.453(2)
C4 C 0.9203(20) 0.7772(10) 0.394(4)
H4 H 0.9453 0.7772 0.4326
C14 C 0.9219(18) 0.7783(12) 0.265(4)
H14 H 0.9488 0.7819 0.2283
O6 O 0.8718(8) 1.0431(6) 1.0290(15)
O4 O 0.8487(7) 1.0126(5) 0.8590(12)
C12 C 0.8671(11) 0.9717(7) 0.989(2)
C11 C 0.8618(11) 1.0127(8) 0.960(2)
C7 C 0.8859(16) 0.9660(10) 1.087(2)
H7 H 0.8972 0.9878 1.1472
O2 O 0.9225(10) 0.7760(6) 0.6262(11)
C4 C 0.8569(22) 0.7772(10) 0.394(4)
H4 H 0.8319 0.7772 0.4326
C14 C 0.8564(22) 0.7783(12) 0.265(4)
H14 H 0.8331 0.7819 0.2283
Zn1 Zn 0.55770(14) 0.72197(8) 0.4486(2)
O5 O 0.6188(10) 0.7405(6) 0.5194(13)
O1 O 0.6125(9) 0.7635(5) 0.6928(14)
N1 N 0.7706(12) 0.7746(6) 0.7125(15)
C9 C 0.7030(21) 0.7878(12) 0.742(3)
H9 H 0.6890 0.8015 0.7844
C8 C 0.6319(14) 0.7543(8) 0.619(2)
C6 C 0.6818(15) 0.7626(9) 0.6492(18)
C5 C 0.7492(26) 0.7937(13) 0.774(3)
H5 H 0.7642 0.8113 0.8392
C3 C 0.7497(23) 0.7547(12) 0.614(2)
H3 H 0.7658 0.7464 0.5617
C2 C 0.7056(20) 0.7462(12) 0.588(2)
H2 H 0.6909 0.7279 0.5235
Zn1 Zn 0.83093(11) 1.05530(8) 0.7819(2)
Zn1 Zn 0.94470(14) 0.77563(8) 0.7819(2)
Zn1 Zn 0.61137(14) 0.50240(11) 1.1152(2)
Zn2 Zn 0.88779(12) 0.77558(11) 0.0289(3)
Zn2 Zn 0.88779(16) 1.11221(12) 1.0289(3)
Zn2 Zn 0.55775(13) 0.77888(5) 0.6956(3)
O7 O 0.5571(5) 0.7786(2) 0.5222(13)
O6 O 0.9569(10) 0.8287(6) 1.0290(15)
O4 O 0.4972(9) 0.6793(5) 0.5257(12)
O2 O 0.5573(9) 0.7442(5) 0.2929(11)
O1 O 0.9032(10) 0.7208(6) 1.0261(14)
N1 N 0.5587(13) 0.6627(10) 0.3792(15)
N2 N 0.8873(8) 0.7746(7) 1.206(2)
H15 H 0.905674 0.811348 0.855547
S1 S 1.07417(15) 0.92583(15) 0.8938(6)
O5 O 0.9262(6) 0.7145(5) 0.8527(13)
O4 O 0.9874(5) 0.8361(5) 0.8590(12)
N1 N 0.8921(6) 0.5627(8) 1.0458(15)
C12 C 1.0283(7) 0.8954(8) 0.989(2)
C11 C 0.9873(8) 0.8491(8) 0.960(2)
C9 C 0.8789(12) 0.6303(12) 1.075(3)
H9 H 0.8652 0.6443 1.1177
C8 C 0.9124(8) 0.7014(8) 0.952(2)
C7 C 1.0340(10) 0.9199(12) 1.087(2)
H7 H 1.0122 0.9094 1.1472
C6 C 0.9041(9) 0.6515(8) 0.9825(18)
C5 C 0.8730(13) 0.5841(18) 1.107(3)
H5 H 0.8554 0.5691 1.1725
C3 C 0.9120(12) 0.5836(16) 0.947(2)
H3 H 0.9203 0.5675 0.8950
C2 C 0.9205(12) 0.6277(11) 0.921(2)
H2 H 0.9388 0.6424 0.8568
O6 O 1.1713(6) 1.0431(6) 1.0290(15)
O4 O 1.1639(5) 1.0126(5) 0.8590(12)
C12 C 1.1046(8) 0.9717(7) 0.989(2)
C11 C 1.1509(8) 1.0127(8) 0.960(2)
C7 C 1.0801(12) 0.9660(10) 1.087(2)
H7 H 1.0906 0.9878 1.1472
Zn1 Zn 1.16426(11) 0.72197(8) 0.4486(2)
O5 O 1.1216(8) 0.7405(6) 0.5194(13)
O1 O 1.1509(8) 0.7635(5) 0.6928(14)
N1 N 1.0040(10) 0.7746(6) 0.7125(15)
C9 C 1.0847(17) 0.7878(12) 0.742(3)
H9 H 1.1124 0.8015 0.7844
C8 C 1.1223(11) 0.7543(8) 0.619(2)
C6 C 1.0807(12) 0.7626(9) 0.6492(18)
C5 C 1.0445(22) 0.7937(13) 0.774(3)
H5 H 1.0471 0.8113 0.8392
C3 C 1.0050(20) 0.7547(12) 0.614(2)
H3 H 0.9806 0.7464 0.5617
C2 C 1.0405(16) 0.7462(12) 0.588(2)
H2 H 1.0369 0.7279 0.5235
Zn1 Zn 1.22437(8) 1.05530(8) 0.7819(2)
Zn1 Zn 0.89104(8) 0.50240(11) 1.1152(2)
Zn2 Zn 1.22442(11) 1.11221(12) 1.0289(3)
Zn2 Zn 1.22112(12) 0.77888(5) 0.6956(3)
O7 O 1.2214(5) 0.7786(2) 0.5222(13)
O4 O 1.1820(7) 0.6793(5) 0.5257(12)
O2 O 1.1868(8) 0.7442(5) 0.2929(11)
N1 N 1.1039(8) 0.6627(10) 0.3792(15)
S1 S 0.07417(15) 0.14834(21) 0.8938(6)
O5 O 0.2855(5) 0.2117(8) 0.8527(13)
O4 O 0.1639(5) 0.1513(7) 0.8590(12)
N1 N 0.4373(8) 0.3293(10) 1.0458(15)
C12 C 0.1046(8) 0.1329(11) 0.989(2)
C11 C 0.1509(8) 0.1382(11) 0.960(2)
C9 C 0.3697(12) 0.2486(17) 1.075(3)
H9 H 0.3557 0.2209 1.1177
C8 C 0.2986(8) 0.2110(11) 0.952(2)
C7 C 0.0801(12) 0.1141(16) 1.087(2)
H7 H 0.0906 0.1028 1.1472
C6 C 0.3485(8) 0.2526(12) 0.9825(18)
C5 C 0.4159(18) 0.2888(22) 1.107(3)
H5 H 0.4309 0.2862 1.1725
C3 C 0.4164(16) 0.3283(20) 0.947(2)
H3 H 0.4325 0.3527 0.8950
C2 C 0.3723(11) 0.2928(16) 0.921(2)
H2 H 0.3576 0.2964 0.8568
O6 O -0.0431(6) 0.1282(8) 1.0290(15)
O4 O -0.0126(5) 0.1513(7) 0.8590(12)
C12 C 0.0283(7) 0.1329(11) 0.989(2)
C11 C -0.0127(8) 0.1382(11) 0.960(2)
C7 C 0.0340(10) 0.1141(16) 1.087(2)
H7 H 0.0122 0.1028 1.1472
Zn1 Zn 0.27803(8) 0.44230(14) 0.4486(2)
O5 O 0.2595(6) 0.3812(10) 0.5194(13)
O1 O 0.2365(5) 0.3875(9) 0.6928(14)
N1 N 0.2254(6) 0.2294(12) 0.7125(15)
C9 C 0.2122(12) 0.2970(21) 0.742(3)
H9 H 0.1985 0.3110 0.7844
C8 C 0.2457(8) 0.3681(14) 0.619(2)
C6 C 0.2374(9) 0.3182(15) 0.6492(18)
C5 C 0.2063(13) 0.2508(26) 0.774(3)
H5 H 0.1887 0.2358 0.8392
C3 C 0.2453(12) 0.2503(23) 0.614(2)
H3 H 0.2536 0.2342 0.5617
C2 C 0.2538(12) 0.2944(20) 0.588(2)
H2 H 0.2721 0.3091 0.5235
Zn1 Zn -0.05530(8) 0.16907(11) 0.7819(2)
Zn1 Zn 0.49760(11) 0.38863(14) 1.1152(2)
Zn2 Zn -0.11221(12) 0.11221(16) 1.0289(3)
Zn2 Zn 0.22112(5) 0.44225(13) 0.6956(3)
O7 O 0.2214(2) 0.4429(5) 0.5222(13)
O4 O 0.3207(5) 0.5028(9) 0.5257(12)
O2 O 0.2558(5) 0.4427(9) 0.2929(11)
N1 N 0.3373(10) 0.4413(13) 0.3792(15)
S1 S 0.85166(21) -0.07417(15) 0.8938(6)
O5 O 0.7883(8) 0.0738(6) 0.8527(13)
O4 O 0.8487(7) 0.0126(5) 0.8590(12)
N1 N 0.6707(10) 0.1079(6) 1.0458(15)
C12 C 0.8671(11) -0.0283(7) 0.989(2)
C11 C 0.8618(11) 0.0127(8) 0.960(2)
C9 C 0.7514(17) 0.1211(12) 1.075(3)
H9 H 0.7791 0.1348 1.1177
C8 C 0.7890(11) 0.0876(8) 0.952(2)
C7 C 0.8859(16) -0.0340(10) 1.087(2)
H7 H 0.8972 -0.0122 1.1472
C6 C 0.7474(12) 0.0959(9) 0.9825(18)
C5 C 0.7112(22) 0.1270(13) 1.107(3)
H5 H 0.7138 0.1446 1.1725
C3 C 0.6717(20) 0.0880(12) 0.947(2)
H3 H 0.6473 0.0797 0.8950
C2 C 0.7072(16) 0.0795(12) 0.921(2)
H2 H 0.7036 0.0612 0.8568
O6 O 0.8718(8) -0.1713(6) 1.0290(15)
O4 O 0.8487(7) -0.1639(5) 0.8590(12)
C12 C 0.8671(11) -0.1046(8) 0.989(2)
C11 C 0.8618(11) -0.1509(8) 0.960(2)
C7 C 0.8859(16) -0.0801(12) 1.087(2)
H7 H 0.8972 -0.0906 1.1472
Zn1 Zn 0.55770(14) -0.16426(11) 0.4486(2)
O5 O 0.6188(10) -0.1216(8) 0.5194(13)
O1 O 0.6125(9) -0.1509(8) 0.6928(14)
N1 N 0.7706(12) -0.0040(10) 0.7125(15)
C9 C 0.7030(21) -0.0847(17) 0.742(3)
H9 H 0.6890 -0.1124 0.7844
C8 C 0.6319(14) -0.1223(11) 0.619(2)
C6 C 0.6818(15) -0.0807(12) 0.6492(18)
C5 C 0.7492(26) -0.0445(22) 0.774(3)
H5 H 0.7642 -0.0471 0.8392
C3 C 0.7497(23) -0.0050(20) 0.614(2)
H3 H 0.7658 0.0194 0.5617
C2 C 0.7056(20) -0.0405(16) 0.588(2)
H2 H 0.6909 -0.0369 0.5235
Zn1 Zn 0.83093(11) -0.22437(8) 0.7819(2)
Zn1 Zn 0.61137(14) 0.10896(8) 1.1152(2)
Zn2 Zn 0.88779(16) -0.22442(11) 1.0289(3)
Zn2 Zn 0.55775(13) -0.22112(12) 0.6956(3)
O7 O 0.5571(5) -0.2214(5) 0.5222(13)
O4 O 0.4972(9) -0.1820(7) 0.5257(12)
O2 O 0.5573(9) -0.1868(8) 0.2929(11)
N1 N 0.5587(13) -0.1039(8) 0.3792(15)
Zn1 Zn 0.89104(8) 0.38863(8) 0.1152(2)
Zn2 Zn 0.89109(11) 0.44554(5) 0.3622(3)
S1 S 0.74084(15) 0.25916(15) 0.2271(6)
O7 O 0.8905(5) 0.4452(2) 0.1888(13)
O6 O 0.8380(6) 0.3764(6) 0.3623(15)
O5 O 0.9522(5) 0.4071(6) 0.1860(13)
O4 O 0.8306(5) 0.3459(5) 0.1923(12)
O2 O 0.8907(6) 0.4108(5) -0.0405(11)
O1 O 0.9459(6) 0.4301(5) 0.3594(14)
N2 N 0.8921(7) 0.4460(4) -0.461(2)
C12 C 0.7713(8) 0.3050(7) 0.322(2)
C11 C 0.8176(8) 0.3460(8) 0.293(2)
C9 C 1.0364(12) 0.4544(12) 0.408(3)
H9 H 1.0224 0.4681 0.4510
C8 C 0.9653(8) 0.4209(8) 0.285(2)
C7 C 0.7468(12) 0.2993(10) 0.420(2)
H7 H 0.7573 0.3211 0.4805
C6 C 1.0152(8) 0.4292(9) 0.3158(18)
C5 C 1.0825(18) 0.4604(13) 0.441(3)
H5 H 1.0975 0.4780 0.5059
C3 C 1.0830(16) 0.4214(12) 0.281(2)
H3 H 1.0991 0.4131 0.2284
C2 C 1.0390(11) 0.4128(12) 0.254(2)
H2 H 1.0243 0.3945 0.1901
C13 C 0.8909(10) 0.4454(5) -0.088(2)
C1 C 0.8906(12) 0.4453(6) -0.214(2)
C4 C 0.8895(10) 0.4764(17) -0.273(4)
H4 H 0.8895 0.5014 -0.2341
C14 C 0.8884(12) 0.4769(14) -0.402(4)
H14 H 0.8848 0.5002 -0.4384
O6 O 0.6236(6) 0.1620(6) 0.3623(15)
O4 O 0.6541(5) 0.1694(5) 0.1923(12)
C12 C 0.6950(7) 0.2287(8) 0.322(2)
C11 C 0.6540(8) 0.1824(8) 0.293(2)
C7 C 0.7007(10) 0.2532(12) 0.420(2)
H7 H 0.6789 0.2427 0.4805
O2 O 0.8907(6) 0.4798(8) -0.0405(11)
C4 C 0.8895(10) 0.4130(20) -0.273(4)
H4 H 0.8895 0.3880 -0.2341
C14 C 0.8884(12) 0.4114(18) -0.402(4)
H14 H 0.8848 0.3845 -0.4384
Zn1 Zn 0.94470(8) 0.16907(11) -0.2181(2)
O5 O 0.9262(6) 0.2117(8) -0.1473(13)
O1 O 0.9032(5) 0.1824(8) 0.0261(14)
N1 N 0.8921(6) 0.3293(10) 0.0458(15)
C9 C 0.8789(12) 0.2486(17) 0.075(3)
H9 H 0.8652 0.2209 0.1177
C8 C 0.9124(8) 0.2110(11) -0.048(2)
C6 C 0.9041(9) 0.2526(12) -0.0175(18)
C5 C 0.8730(13) 0.2888(22) 0.107(3)
H5 H 0.8554 0.2862 0.1725
C3 C 0.9120(12) 0.3283(20) -0.053(2)
H3 H 0.9203 0.3527 -0.1050
C2 C 0.9205(12) 0.2928(16) -0.079(2)
H2 H 0.9388 0.2964 -0.1432
Zn1 Zn 0.61137(8) 0.10896(8) 0.1152(2)
Zn1 Zn 0.89104(8) 0.50240(11) 0.1152(2)
Zn2 Zn 0.89109(11) 0.44554(5) -0.6378(3)
Zn2 Zn 0.55446(12) 0.10891(11) 0.3622(3)
O7 O 0.8881(2) 0.1119(5) -0.1445(13)
O6 O 0.8380(6) 0.4615(8) 0.3623(15)
O4 O 0.9874(5) 0.1513(7) -0.1410(12)
O2 O 0.9225(5) 0.1465(8) -0.3738(11)
O1 O 0.9459(6) 0.5157(8) 0.3594(14)
N1 N 1.0040(10) 0.2294(8) -0.2875(15)
N2 N 0.8921(7) 0.4460(4) 0.539(2)
H15 H 0.855319 0.42766 0.18888
Zn1 Zn 0.61137(8) 0.50240(11) 0.1152(2)
Zn2 Zn 0.55446(5) 0.44554(12) 0.3622(3)
S1 S 0.74084(15) 0.48167(21) 0.2271(6)
O7 O 0.5548(2) 0.4452(5) 0.1888(13)
O6 O 0.6236(6) 0.4615(8) 0.3623(15)
O5 O 0.5929(6) 0.5450(8) 0.1860(13)
O4 O 0.6541(5) 0.4846(7) 0.1923(12)
O2 O 0.5892(5) 0.4798(8) -0.0405(11)
O1 O 0.5699(5) 0.5157(8) 0.3594(14)
N2 N 0.5540(4) 0.4460(8) -0.461(2)
C12 C 0.6950(7) 0.4662(11) 0.322(2)
C11 C 0.6540(8) 0.4715(11) 0.293(2)
C9 C 0.5456(12) 0.5819(17) 0.408(3)
H9 H 0.5319 0.5542 0.4510
C8 C 0.5791(8) 0.5443(11) 0.285(2)
C7 C 0.7007(10) 0.4474(16) 0.420(2)
H7 H 0.6789 0.4361 0.4805
C6 C 0.5708(9) 0.5859(12) 0.3158(18)
C5 C 0.5396(13) 0.6222(22) 0.441(3)
H5 H 0.5220 0.6196 0.5059
C3 C 0.5786(12) 0.6617(20) 0.281(2)
H3 H 0.5869 0.6861 0.2284
C2 C 0.5872(12) 0.6261(16) 0.254(2)
H2 H 0.6055 0.6297 0.1901
C13 C 0.5546(5) 0.4454(11) -0.088(2)
C1 C 0.5547(6) 0.4452(13) -0.214(2)
C4 C 0.5236(17) 0.4130(20) -0.273(4)
H4 H 0.4986 0.3880 -0.2341
C14 C 0.5231(14) 0.4114(18) -0.402(4)
H14 H 0.4998 0.3845 -0.4384
O4 O 0.8306(5) 0.4846(7) 0.1923(12)
C12 C 0.7713(8) 0.4662(11) 0.322(2)
C11 C 0.8176(8) 0.4715(11) 0.293(2)
C7 C 0.7468(12) 0.4474(16) 0.420(2)
H7 H 0.7573 0.4361 0.4805
O2 O 0.5202(8) 0.4108(10) -0.0405(11)
C4 C 0.5870(20) 0.4764(22) -0.273(4)
H4 H 0.6120 0.5014 -0.2341
C14 C 0.5886(18) 0.4769(22) -0.402(4)
H14 H 0.6155 0.5002 -0.4384
Zn1 Zn 0.83093(11) 0.77563(14) -0.2181(2)
O5 O 0.7883(8) 0.7145(10) -0.1473(13)
O1 O 0.8176(8) 0.7208(9) 0.0261(14)
N1 N 0.6707(10) 0.5627(12) 0.0458(15)
C9 C 0.7514(17) 0.6303(21) 0.075(3)
H9 H 0.7791 0.6443 0.1177
C8 C 0.7890(11) 0.7014(14) -0.048(2)
C6 C 0.7474(12) 0.6515(15) -0.0175(18)
C5 C 0.7112(22) 0.5841(26) 0.107(3)
H5 H 0.7138 0.5691 0.1725
C3 C 0.6717(20) 0.5836(23) -0.053(2)
H3 H 0.6473 0.5675 -0.1050
C2 C 0.7072(16) 0.6277(20) -0.079(2)
H2 H 0.7036 0.6424 -0.1432
Zn1 Zn 0.49760(11) 0.38863(14) 0.1152(2)
Zn2 Zn 0.55446(5) 0.44554(12) -0.6378(3)
O7 O 0.8881(5) 0.7762(5) -0.1445(13)
O6 O 0.5385(8) 0.3764(10) 0.3623(15)
O4 O 0.8487(7) 0.8361(9) -0.1410(12)
O2 O 0.8535(8) 0.7760(9) -0.3738(11)
O1 O 0.4843(8) 0.4301(10) 0.3594(14)
N1 N 0.7706(8) 0.7746(13) -0.2875(15)
N2 N 0.5540(4) 0.4460(8) 0.539(2)
H15 H 0.57234 0.42766 0.18888
Zn1 Zn 0.49760(11) 0.10896(8) 0.1152(2)
S1 S 0.51833(21) 0.25916(15) 0.2271(6)
O7 O 0.5548(5) 0.1095(5) 0.1888(13)
O6 O 0.5385(8) 0.1620(6) 0.3623(15)
O5 O 0.4550(8) 0.0478(5) 0.1860(13)
O4 O 0.5154(7) 0.1694(5) 0.1923(12)
O2 O 0.5202(8) 0.1093(6) -0.0405(11)
O1 O 0.4843(8) 0.0541(6) 0.3594(14)
N2 N 0.5540(8) 0.1079(7) -0.461(2)
C12 C 0.5338(11) 0.2287(8) 0.322(2)
C11 C 0.5285(11) 0.1824(8) 0.293(2)
C9 C 0.4181(17) -0.0364(12) 0.408(3)
H9 H 0.4458 -0.0224 0.4510
C8 C 0.4557(11) 0.0347(8) 0.285(2)
C7 C 0.5526(16) 0.2532(12) 0.420(2)
H7 H 0.5639 0.2427 0.4805
C6 C 0.4141(12) -0.0152(8) 0.3158(18)
C5 C 0.3778(22) -0.0825(18) 0.441(3)
H5 H 0.3804 -0.0975 0.5059
C3 C 0.3383(20) -0.0830(16) 0.281(2)
H3 H 0.3139 -0.0991 0.2284
C2 C 0.3739(16) -0.0390(11) 0.254(2)
H2 H 0.3703 -0.0243 0.1901
C13 C 0.5546(11) 0.1091(10) -0.088(2)
C1 C 0.5548(13) 0.1094(12) -0.214(2)
C4 C 0.5870(20) 0.1105(10) -0.273(4)
H4 H 0.6120 0.1105 -0.2341
C14 C 0.5886(18) 0.1116(12) -0.402(4)
H14 H 0.6155 0.1152 -0.4384
O4 O 0.5154(7) 0.3459(5) 0.1923(12)
C12 C 0.5338(11) 0.3050(7) 0.322(2)
C11 C 0.5285(11) 0.3460(8) 0.293(2)
C7 C 0.5526(16) 0.2993(10) 0.420(2)
H7 H 0.5639 0.3211 0.4805
O2 O 0.5892(10) 0.1093(6) -0.0405(11)
C4 C 0.5236(22) 0.1105(10) -0.273(4)
H4 H 0.4986 0.1105 -0.2341
C14 C 0.5231(22) 0.1116(12) -0.402(4)
H14 H 0.4998 0.1152 -0.4384
Zn1 Zn 0.22437(14) 0.05530(8) -0.2181(2)
O5 O 0.2855(10) 0.0738(6) -0.1473(13)
O1 O 0.2792(9) 0.0968(5) 0.0261(14)
N1 N 0.4373(12) 0.1079(6) 0.0458(15)
C9 C 0.3697(21) 0.1211(12) 0.075(3)
H9 H 0.3557 0.1348 0.1177
C8 C 0.2986(14) 0.0876(8) -0.048(2)
C6 C 0.3485(15) 0.0959(9) -0.0175(18)
C5 C 0.4159(26) 0.1270(13) 0.107(3)
H5 H 0.4309 0.1446 0.1725
C3 C 0.4164(23) 0.0880(12) -0.053(2)
H3 H 0.4325 0.0797 -0.1050
C2 C 0.3723(20) 0.0795(12) -0.079(2)
H2 H 0.3576 0.0612 -0.1432
Zn2 Zn 0.55446(12) 0.10891(11) -0.6378(3)
O7 O 0.2238(5) 0.1119(2) -0.1445(13)
O4 O 0.1639(9) 0.0126(5) -0.1410(12)
O2 O 0.2240(9) 0.0775(5) -0.3738(11)
O1 O 0.5699(10) 0.0541(6) 0.3594(14)
N1 N 0.2254(13) -0.0040(10) -0.2875(15)
N2 N 0.5540(8) 0.1079(7) 0.539(2)
H15 H 0.57234 0.144681 0.18888
O5 O 0.5929(6) 0.0478(5) 0.1860(13)
C9 C 0.5456(12) -0.0364(12) 0.408(3)
H9 H 0.5319 -0.0224 0.4510
C8 C 0.5791(8) 0.0347(8) 0.285(2)
C6 C 0.5708(9) -0.0152(8) 0.3158(18)
C5 C 0.5396(13) -0.0825(18) 0.441(3)
H5 H 0.5220 -0.0975 0.5059
C3 C 0.5786(12) -0.0830(16) 0.281(2)
H3 H 0.5869 -0.0991 0.2284
C2 C 0.5872(12) -0.0390(11) 0.254(2)
H2 H 0.6055 -0.0243 0.1901
Zn1 Zn 0.83093(11) 0.05530(8) -0.2181(2)
O5 O 0.7883(8) 0.0738(6) -0.1473(13)
O1 O 0.8176(8) 0.0968(5) 0.0261(14)
N1 N 0.6707(10) 0.1079(6) 0.0458(15)
C9 C 0.7514(17) 0.1211(12) 0.075(3)
H9 H 0.7791 0.1348 0.1177
C8 C 0.7890(11) 0.0876(8) -0.048(2)
C6 C 0.7474(12) 0.0959(9) -0.0175(18)
C5 C 0.7112(22) 0.1270(13) 0.107(3)
H5 H 0.7138 0.1446 0.1725
C3 C 0.6717(20) 0.0880(12) -0.053(2)
H3 H 0.6473 0.0797 -0.1050
C2 C 0.7072(16) 0.0795(12) -0.079(2)
H2 H 0.7036 0.0612 -0.1432
O4 O 0.8487(7) 0.0126(5) -0.1410(12)
O2 O 0.8535(8) 0.0775(5) -0.3738(11)
N1 N 0.7706(8) -0.0040(10) -0.2875(15)
O5 O 0.9522(5) 0.5450(8) 0.1860(13)
C9 C 1.0364(12) 0.5819(17) 0.408(3)
H9 H 1.0224 0.5542 0.4510
C8 C 0.9653(8) 0.5443(11) 0.285(2)
C6 C 1.0152(8) 0.5859(12) 0.3158(18)
C5 C 1.0825(18) 0.6222(22) 0.441(3)
H5 H 1.0975 0.6196 0.5059
C3 C 1.0830(16) 0.6617(20) 0.281(2)
H3 H 1.0991 0.6861 0.2284
C2 C 1.0390(11) 0.6261(16) 0.254(2)
H2 H 1.0243 0.6297 0.1901
Zn1 Zn 0.94470(8) 0.77563(14) -0.2181(2)
O5 O 0.9262(6) 0.7145(10) -0.1473(13)
O1 O 0.9032(5) 0.7208(9) 0.0261(14)
N1 N 0.8921(6) 0.5627(12) 0.0458(15)
C9 C 0.8789(12) 0.6303(21) 0.075(3)
H9 H 0.8652 0.6443 0.1177
C8 C 0.9124(8) 0.7014(14) -0.048(2)
C6 C 0.9041(9) 0.6515(15) -0.0175(18)
C5 C 0.8730(13) 0.5841(26) 0.107(3)
H5 H 0.8554 0.5691 0.1725
C3 C 0.9120(12) 0.5836(23) -0.053(2)
H3 H 0.9203 0.5675 -0.1050
C2 C 0.9205(12) 0.6277(20) -0.079(2)
H2 H 0.9388 0.6424 -0.1432
O4 O 0.9874(5) 0.8361(9) -0.1410(12)
O2 O 0.9225(5) 0.7760(9) -0.3738(11)
N1 N 1.0040(10) 0.7746(13) -0.2875(15)
O5 O 0.4550(8) 0.4071(6) 0.1860(13)
C9 C 0.4181(17) 0.4544(12) 0.408(3)
H9 H 0.4458 0.4681 0.4510
C8 C 0.4557(11) 0.4209(8) 0.285(2)
C6 C 0.4141(12) 0.4292(9) 0.3158(18)
C5 C 0.3778(22) 0.4604(13) 0.441(3)
H5 H 0.3804 0.4780 0.5059
C3 C 0.3383(20) 0.4214(12) 0.281(2)
H3 H 0.3139 0.4131 0.2284
C2 C 0.3739(16) 0.4128(12) 0.254(2)
H2 H 0.3703 0.3945 0.1901
Zn1 Zn 0.22437(14) 0.16907(11) -0.2181(2)
O5 O 0.2855(10) 0.2117(8) -0.1473(13)
O1 O 0.2792(9) 0.1824(8) 0.0261(14)
N1 N 0.4373(12) 0.3293(10) 0.0458(15)
C9 C 0.3697(21) 0.2486(17) 0.075(3)
H9 H 0.3557 0.2209 0.1177
C8 C 0.2986(14) 0.2110(11) -0.048(2)
C6 C 0.3485(15) 0.2526(12) -0.0175(18)
C5 C 0.4159(26) 0.2888(22) 0.107(3)
H5 H 0.4309 0.2862 0.1725
C3 C 0.4164(23) 0.3283(20) -0.053(2)
H3 H 0.4325 0.3527 -0.1050
C2 C 0.3723(20) 0.2928(16) -0.079(2)
H2 H 0.3576 0.2964 -0.1432
O4 O 0.1639(9) 0.1513(7) -0.1410(12)
O2 O 0.2240(9) 0.1465(8) -0.3738(11)
N1 N 0.2254(13) 0.2294(8) -0.2875(15)
S1 S 0.40750(15) 0.59250(15) 0.5605(6)
O6 O 0.5046(6) 0.7098(6) 0.6957(15)
N2 N 0.5587(7) 0.7794(4) -0.127(2)
C12 C 0.4379(8) 0.6384(7) 0.656(2)
C11 C 0.4842(8) 0.6794(8) 0.627(2)
C7 C 0.4134(12) 0.6327(10) 0.754(2)
H7 H 0.4239 0.6545 0.8139
C13 C 0.5575(10) 0.7788(5) 0.246(2)
C1 C 0.5572(12) 0.7787(6) 0.120(2)
C4 C 0.5561(10) 0.8098(17) 0.061(4)
H4 H 0.5561 0.8348 0.0993
C14 C 0.5550(12) 0.8103(14) -0.068(4)
H14 H 0.5514 0.8336 -0.1050
O6 O 0.2902(6) 0.4954(6) 0.6957(15)
C12 C 0.3616(7) 0.5621(8) 0.656(2)
C11 C 0.3206(8) 0.5158(8) 0.627(2)
C7 C 0.3673(10) 0.5866(12) 0.754(2)
H7 H 0.3455 0.5761 0.8139
O2 O 0.5573(6) 0.8132(8) 0.2929(11)
C4 C 0.5561(10) 0.7464(20) 0.061(4)
H4 H 0.5561 0.7214 0.0993
C14 C 0.5550(12) 0.7448(18) -0.068(4)
H14 H 0.5514 0.7179 -0.1050
Zn1 Zn 0.55770(8) 0.83574(11) 0.4486(2)
Zn2 Zn 0.55775(11) 0.77888(5) -0.3044(3)
O6 O 0.5046(6) 0.7949(8) 0.6957(15)
O1 O 0.6125(6) 0.8491(8) 0.6928(14)
N2 N 0.5587(7) 0.7794(4) 0.873(2)
H15 H 0.521986 0.760993 0.522213
Zn1 Zn 0.27803(8) 0.83574(11) 0.4486(2)
Zn2 Zn 0.22112(5) 0.77888(12) 0.6956(3)
S1 S 0.40750(15) 0.81501(21) 0.5605(6)
O7 O 0.2214(2) 0.7786(5) 0.5222(13)
O6 O 0.2902(6) 0.7949(8) 0.6957(15)
O5 O 0.2595(6) 0.8784(8) 0.5194(13)
O4 O 0.3207(5) 0.8180(7) 0.5257(12)
O2 O 0.2558(5) 0.8132(8) 0.2929(11)
O1 O 0.2365(5) 0.8491(8) 0.6928(14)
N1 N 0.2254(6) 0.9960(10) 0.7125(15)
N2 N 0.2206(4) 0.7794(8) -0.127(2)
C12 C 0.3616(7) 0.7996(11) 0.656(2)
C11 C 0.3206(8) 0.8049(11) 0.627(2)
C9 C 0.2122(12) 0.9153(17) 0.742(3)
H9 H 0.1985 0.8876 0.7844
C8 C 0.2457(8) 0.8777(11) 0.619(2)
C7 C 0.3673(10) 0.7808(16) 0.754(2)
H7 H 0.3455 0.7695 0.8139
C6 C 0.2374(9) 0.9193(12) 0.6492(18)
C5 C 0.2063(13) 0.9555(22) 0.774(3)
H5 H 0.1887 0.9529 0.8392
C3 C 0.2453(12) 0.9950(20) 0.614(2)
H3 H 0.2536 1.0194 0.5617
C2 C 0.2538(12) 0.9595(16) 0.588(2)
H2 H 0.2721 0.9631 0.5235
C13 C 0.2212(5) 0.7788(11) 0.246(2)
C1 C 0.2213(6) 0.7786(13) 0.120(2)
C4 C 0.1902(17) 0.7464(20) 0.061(4)
H4 H 0.1652 0.7214 0.0993
C14 C 0.1897(14) 0.7448(18) -0.068(4)
H14 H 0.1664 0.7179 -0.1050
O4 O 0.4972(5) 0.8180(7) 0.5257(12)
C12 C 0.4379(8) 0.7996(11) 0.656(2)
C11 C 0.4842(8) 0.8049(11) 0.627(2)
C7 C 0.4134(12) 0.7808(16) 0.754(2)
H7 H 0.4239 0.7695 0.8139
O2 O 0.1868(8) 0.7442(10) 0.2929(11)
C4 C 0.2536(20) 0.8098(22) 0.061(4)
H4 H 0.2786 0.8348 0.0993
C14 C 0.2552(18) 0.8103(22) -0.068(4)
H14 H 0.2821 0.8336 -0.1050
Zn1 Zn 0.49760(11) 1.10896(14) 0.1152(2)
O5 O 0.4550(8) 1.0478(10) 0.1860(13)
O1 O 0.4843(8) 1.0541(9) 0.3594(14)
N1 N 0.3373(10) 0.8961(12) 0.3792(15)
C9 C 0.4181(17) 0.9636(21) 0.408(3)
H9 H 0.4458 0.9776 0.4510
C8 C 0.4557(11) 1.0347(14) 0.285(2)
C6 C 0.4141(12) 0.9848(15) 0.3158(18)
C5 C 0.3778(22) 0.9175(26) 0.441(3)
H5 H 0.3804 0.9025 0.5059
C3 C 0.3383(20) 0.9170(23) 0.281(2)
H3 H 0.3139 0.9009 0.2284
C2 C 0.3739(16) 0.9610(20) 0.254(2)
H2 H 0.3703 0.9757 0.1901
Zn1 Zn 0.16426(11) 0.72197(14) 0.4486(2)
Zn1 Zn 0.22437(8) 1.05530(14) 0.7819(2)
Zn2 Zn 0.22112(5) 0.77888(12) -0.3044(3)
Zn2 Zn 0.55446(12) 1.10891(13) 0.3622(3)
O7 O 0.5548(5) 1.1095(5) 0.1888(13)
O6 O 0.2051(8) 0.7098(10) 0.6957(15)
O4 O 0.5154(7) 1.1694(9) 0.1923(12)
O2 O 0.5202(8) 1.1093(9) -0.0405(11)
O1 O 0.1509(8) 0.7635(10) 0.6928(14)
N1 N 0.4373(8) 1.1079(13) 0.0458(15)
N2 N 0.2206(4) 0.7794(8) 0.873(2)
H15 H 0.239007 0.760993 0.522213
Zn1 Zn 0.16426(11) 0.44230(8) 0.4486(2)
S1 S 0.18499(21) 0.59250(15) 0.5605(6)
O6 O 0.2051(8) 0.4954(6) 0.6957(15)
O5 O 0.1216(8) 0.3812(5) 0.5194(13)
O4 O 0.1820(7) 0.5028(5) 0.5257(12)
O2 O 0.1868(8) 0.4427(6) 0.2929(11)
O1 O 0.1509(8) 0.3875(6) 0.6928(14)
N1 N 0.0040(10) 0.2294(8) 0.7125(15)
N2 N 0.2206(8) 0.4413(7) -0.127(2)
C12 C 0.2004(11) 0.5621(8) 0.656(2)
C11 C 0.1951(11) 0.5158(8) 0.627(2)
C9 C 0.0847(17) 0.2970(12) 0.742(3)
H9 H 0.1124 0.3110 0.7844
C8 C 0.1223(11) 0.3681(8) 0.619(2)
C7 C 0.2192(16) 0.5866(12) 0.754(2)
H7 H 0.2305 0.5761 0.8139
C6 C 0.0807(12) 0.3182(8) 0.6492(18)
C5 C 0.0445(22) 0.2508(18) 0.774(3)
H5 H 0.0471 0.2358 0.8392
C3 C 0.0050(20) 0.2503(16) 0.614(2)
H3 H -0.0194 0.2342 0.5617
C2 C 0.0405(16) 0.2944(11) 0.588(2)
H2 H 0.0369 0.3091 0.5235
C13 C 0.2212(11) 0.4425(10) 0.246(2)
C1 C 0.2214(13) 0.4428(12) 0.120(2)
C4 C 0.2536(20) 0.4439(10) 0.061(4)
H4 H 0.2786 0.4439 0.0993
C14 C 0.2552(18) 0.4450(12) -0.068(4)
H14 H 0.2821 0.4486 -0.1050
O4 O 0.1820(7) 0.6793(5) 0.5257(12)
C12 C 0.2004(11) 0.6384(7) 0.656(2)
C11 C 0.1951(11) 0.6794(8) 0.627(2)
C7 C 0.2192(16) 0.6327(10) 0.754(2)
H7 H 0.2305 0.6545 0.8139
C4 C 0.1902(22) 0.4439(10) 0.061(4)
H4 H 0.1652 0.4439 0.0993
C14 C 0.1897(22) 0.4450(12) -0.068(4)
H14 H 0.1664 0.4486 -0.1050
Zn1 Zn -0.10896(14) 0.38863(8) 0.1152(2)
O5 O -0.0478(10) 0.4071(6) 0.1860(13)
O1 O -0.0541(9) 0.4301(5) 0.3594(14)
N1 N 0.1039(12) 0.4413(6) 0.3792(15)
C9 C 0.0364(21) 0.4544(12) 0.408(3)
H9 H 0.0224 0.4681 0.4510
C8 C -0.0347(14) 0.4209(8) 0.285(2)
C6 C 0.0152(15) 0.4292(9) 0.3158(18)
C5 C 0.0825(26) 0.4604(13) 0.441(3)
H5 H 0.0975 0.4780 0.5059
C3 C 0.0830(23) 0.4214(12) 0.281(2)
H3 H 0.0991 0.4131 0.2284
C2 C 0.0390(20) 0.4128(12) 0.254(2)
H2 H 0.0243 0.3945 0.1901
Zn2 Zn 0.22112(12) 0.44225(11) -0.3044(3)
Zn2 Zn -0.10891(13) 0.44554(5) 0.3622(3)
O7 O -0.1095(5) 0.4452(2) 0.1888(13)
O4 O -0.1694(9) 0.3459(5) 0.1923(12)
O2 O -0.1093(9) 0.4108(5) -0.0405(11)
N1 N -0.1079(13) 0.3293(10) 0.0458(15)
N2 N 0.2206(8) 0.4413(7) 0.873(2)
H15 H 0.239007 0.478014 0.522213
O5 O 0.6188(5) 0.8784(8) 0.5194(13)
N1 N 0.7706(8) 0.9960(10) 0.7125(15)
C9 C 0.7030(12) 0.9153(17) 0.742(3)
H9 H 0.6890 0.8876 0.7844
C8 C 0.6319(8) 0.8777(11) 0.619(2)
C6 C 0.6818(8) 0.9193(12) 0.6492(18)
C5 C 0.7492(18) 0.9555(22) 0.774(3)
H5 H 0.7642 0.9529 0.8392
C3 C 0.7497(16) 0.9950(20) 0.614(2)
H3 H 0.7658 1.0194 0.5617
C2 C 0.7056(11) 0.9595(16) 0.588(2)
H2 H 0.6909 0.9631 0.5235
Zn1 Zn 0.61137(8) 1.10896(14) 0.1152(2)
O5 O 0.5929(6) 1.0478(10) 0.1860(13)
O1 O 0.5699(5) 1.0541(9) 0.3594(14)
N1 N 0.5587(6) 0.8961(12) 0.3792(15)
C9 C 0.5456(12) 0.9636(21) 0.408(3)
H9 H 0.5319 0.9776 0.4510
C8 C 0.5791(8) 1.0347(14) 0.285(2)
C6 C 0.5708(9) 0.9848(15) 0.3158(18)
C5 C 0.5396(13) 0.9175(26) 0.441(3)
H5 H 0.5220 0.9025 0.5059
C3 C 0.5786(12) 0.9170(23) 0.281(2)
H3 H 0.5869 0.9009 0.2284
C2 C 0.5872(12) 0.9610(20) 0.254(2)
H2 H 0.6055 0.9757 0.1901
O4 O 0.6541(5) 1.1694(9) 0.1923(12)
O2 O 0.5892(5) 1.1093(9) -0.0405(11)
N1 N 0.6707(10) 1.1079(13) 0.0458(15)
O5 O 0.1216(8) 0.7405(6) 0.5194(13)
N1 N 0.0040(10) 0.7746(6) 0.7125(15)
C9 C 0.0847(17) 0.7878(12) 0.742(3)
H9 H 0.1124 0.8015 0.7844
C8 C 0.1223(11) 0.7543(8) 0.619(2)
C6 C 0.0807(12) 0.7626(9) 0.6492(18)
C5 C 0.0445(22) 0.7937(13) 0.774(3)
H5 H 0.0471 0.8113 0.8392
C3 C 0.0050(20) 0.7547(12) 0.614(2)
H3 H -0.0194 0.7464 0.5617
C2 C 0.0405(16) 0.7462(12) 0.588(2)
H2 H 0.0369 0.7279 0.5235
Zn1 Zn -0.10896(14) 0.50240(11) 0.1152(2)
O5 O -0.0478(10) 0.5450(8) 0.1860(13)
O1 O -0.0541(9) 0.5157(8) 0.3594(14)
N1 N 0.1039(12) 0.6627(10) 0.3792(15)
C9 C 0.0364(21) 0.5819(17) 0.408(3)
H9 H 0.0224 0.5542 0.4510
C8 C -0.0347(14) 0.5443(11) 0.285(2)
C6 C 0.0152(15) 0.5859(12) 0.3158(18)
C5 C 0.0825(26) 0.6222(22) 0.441(3)
H5 H 0.0975 0.6196 0.5059
C3 C 0.0830(23) 0.6617(20) 0.281(2)
H3 H 0.0991 0.6861 0.2284
C2 C 0.0390(20) 0.6261(16) 0.254(2)
H2 H 0.0243 0.6297 0.1901
Zn1 Zn -0.05530(14) 0.77563(8) 0.7819(2)
O4 O -0.1694(9) 0.4846(7) 0.1923(12)
O2 O -0.1093(9) 0.4798(8) -0.0405(11)
N1 N -0.1079(13) 0.5627(8) 0.0458(15)

#END
