data_crystal
 
_cell_length_a    37.19368
_cell_length_b    37.19368
_cell_length_c    37.19368
_cell_angle_alpha 60.00000
_cell_angle_beta  60.00000
_cell_angle_gamma 60.00000
 
_symmetry_space_group_name_Hall 'P 1'
_symmetry_space_group_name_H-M  'P 1'
 
loop_
_symmetry_equiv_pos_as_xyz
 'x,y,z' 
 
loop_
_atom_site_label
_atom_site_type_symbol
_atom_site_fract_x
_atom_site_fract_y
_atom_site_fract_z
_atom_site_charge
C          C       0.10026   0.10027   0.26427   0.00000
C          C       0.39990   0.39990   0.23523   0.00000
C          C       0.03463   0.26477   0.10010   0.00000
C          C       0.46497   0.23523   0.39990   0.00000
C          C       0.26477   0.03503   0.10010   0.00000
C          C       0.23523   0.46497   0.39990   0.00000
C          C       0.10010   0.10010   0.03503   0.00000
C          C       0.39990   0.39990   0.46497   0.00000
C          C       0.26477   0.10010   0.10010   0.00000
C          C       0.23523   0.39990   0.39990   0.00000
C          C       0.10010   0.26477   0.10010   0.00000
C          C       0.39990   0.23523   0.39990   0.00000
C          C       0.03503   0.10010   0.10010   0.00000
C          C       0.46497   0.39990   0.39990   0.00000
C          C       0.26477   0.10010   0.03504   0.00000
C          C       0.23523   0.39990   0.46496   0.00000
C          C       0.10010   0.03504   0.26477   0.00000
C          C       0.39990   0.46496   0.23523   0.00000
C          C       0.03503   0.10010   0.26477   0.00000
C          C       0.46497   0.39990   0.23523   0.00000
C          C       0.10010   0.26477   0.03504   0.00000
C          C       0.39990   0.23523   0.46496   0.00000
C          C       0.10010   0.03504   0.10010   0.00000
C          C       0.39990   0.46496   0.39990   0.00000
C          C       0.03462   0.16887   0.26190   0.00000
C          C       0.46538   0.33113   0.23810   0.00000
C          C       0.03461   0.26190   0.16887   0.00000
C          C       0.46539   0.23810   0.33113   0.00000
C          C       0.26190   0.03462   0.03462   0.00000
C          C       0.23810   0.46538   0.46538   0.00000
C          C       0.16887   0.03462   0.03462   0.00000
C          C       0.33113   0.46538   0.46538   0.00000
C          C       0.26190   0.03462   0.16887   0.00000
C          C       0.23810   0.46538   0.33113   0.00000
C          C       0.16887   0.26190   0.03462   0.00000
C          C       0.33113   0.23810   0.46538   0.00000
C          C       0.03461   0.16887   0.03461   0.00000
C          C       0.46538   0.33113   0.46538   0.00000
C          C       0.26190   0.16887   0.03462   0.00000
C          C       0.23810   0.33113   0.46538   0.00000
C          C       0.16887   0.03462   0.26190   0.00000
C          C       0.33113   0.46538   0.23810   0.00000
C          C       0.03461   0.03462   0.26190   0.00000
C          C       0.46538   0.46538   0.23810   0.00000
C          C       0.03461   0.26190   0.03462   0.00000
C          C       0.46539   0.23810   0.46538   0.00000
C          C       0.03461   0.03462   0.16887   0.00000
C          C       0.46539   0.46538   0.33113   0.00000
C          C       0.05677   0.12173   0.26474   0.00000
C          C       0.44323   0.37827   0.23526   0.00000
C          C       0.05677   0.26474   0.12173   0.00000
C          C       0.44323   0.23526   0.37827   0.00000
C          C       0.26474   0.05677   0.05677   0.00000
C          C       0.23526   0.44323   0.44323   0.00000
C          C       0.12172   0.05677   0.05677   0.00000
C          C       0.37828   0.44323   0.44323   0.00000
C          C       0.26474   0.05677   0.12172   0.00000
C          C       0.23526   0.44323   0.37828   0.00000
C          C       0.12172   0.26474   0.05677   0.00000
C          C       0.37828   0.23526   0.44323   0.00000
C          C       0.05677   0.12172   0.05677   0.00000
C          C       0.44323   0.37827   0.44323   0.00000
C          C       0.26474   0.12172   0.05677   0.00000
C          C       0.23526   0.37828   0.44323   0.00000
C          C       0.12172   0.05677   0.26474   0.00000
C          C       0.37828   0.44323   0.23526   0.00000
C          C       0.05677   0.05677   0.26474   0.00000
C          C       0.44323   0.44323   0.23526   0.00000
C          C       0.05677   0.26474   0.05677   0.00000
C          C       0.44323   0.23526   0.44323   0.00000
C          C       0.05677   0.05677   0.12172   0.00000
C          C       0.44323   0.44323   0.37828   0.00000
H          H       0.11733   0.11733   0.26396   0.00000
H          H       0.38267   0.38267   0.23604   0.00000
H          H       0.00138   0.26396   0.11733   0.00000
H          H       0.49862   0.23604   0.38267   0.00000
H          H       0.26396   0.00138   0.11733   0.00000
H          H       0.23604   0.49862   0.38267   0.00000
H          H       0.11733   0.11733   0.00138   0.00000
H          H       0.38267   0.38267   0.49862   0.00000
H          H       0.26396   0.11733   0.11733   0.00000
H          H       0.23604   0.38267   0.38267   0.00000
H          H       0.11733   0.26396   0.11733   0.00000
H          H       0.38267   0.23604   0.38267   0.00000
H          H       0.00138   0.11733   0.11733   0.00000
H          H       0.49862   0.38267   0.38267   0.00000
H          H       0.26396   0.11733   0.00139   0.00000
H          H       0.23604   0.38267   0.49861   0.00000
H          H       0.11733   0.00138   0.26396   0.00000
H          H       0.38267   0.49861   0.23604   0.00000
H          H       0.00138   0.11733   0.26396   0.00000
H          H       0.49862   0.38267   0.23604   0.00000
H          H       0.11733   0.26396   0.00139   0.00000
H          H       0.38267   0.23604   0.49861   0.00000
H          H       0.11733   0.00138   0.11733   0.00000
H          H       0.38267   0.49861   0.38267   0.00000
O          O       0.05685   0.18722   0.26026   0.00000
O          O       0.44315   0.31278   0.23974   0.00000
O          O       0.00432   0.23974   0.31278   0.00000
O          O       0.49568   0.26026   0.18722   0.00000
O          O       0.23933   0.00432   0.44315   0.00000
O          O       0.26027   0.49568   0.05685   0.00000
O          O       0.18721   0.05685   0.49567   0.00000
O          O       0.31279   0.44315   0.00432   0.00000
O          O       0.26026   0.05685   0.18721   0.00000
O          O       0.23974   0.44315   0.31279   0.00000
O          O       0.18721   0.26026   0.05685   0.00000
O          O       0.31279   0.23974   0.44315   0.00000
O          O       0.49568   0.18721   0.05685   0.00000
O          O       0.00432   0.31279   0.44315   0.00000
O          O       0.23973   0.31279   0.00432   0.00000
O          O       0.26027   0.18721   0.49568   0.00000
O          O       0.31279   0.00432   0.23974   0.00000
O          O       0.18721   0.49568   0.26026   0.00000
O          O       0.00432   0.44315   0.23974   0.00000
O          O       0.49568   0.05685   0.26026   0.00000
O          O       0.44315   0.23974   0.00432   0.00000
O          O       0.05685   0.26026   0.49568   0.00000
O          O       0.05685   0.49568   0.18721   0.00000
O          O       0.44315   0.00432   0.31279   0.00000
O          O       0.05684   0.26026   0.18722   0.00000
O          O       0.44316   0.23974   0.31278   0.00000
O          O       0.00432   0.31278   0.23974   0.00000
O          O       0.49568   0.18722   0.26026   0.00000
O          O       0.23974   0.44315   0.00432   0.00000
O          O       0.26026   0.05685   0.49568   0.00000
O          O       0.18721   0.49568   0.05685   0.00000
O          O       0.31279   0.00432   0.44315   0.00000
O          O       0.26026   0.18721   0.05685   0.00000
O          O       0.23974   0.31279   0.44315   0.00000
O          O       0.18721   0.05685   0.26026   0.00000
O          O       0.31279   0.44315   0.23974   0.00000
O          O       0.49568   0.05685   0.18721   0.00000
O          O       0.00432   0.44315   0.31279   0.00000
O          O       0.23973   0.00432   0.31279   0.00000
O          O       0.26026   0.49568   0.18721   0.00000
O          O       0.31279   0.23973   0.00432   0.00000
O          O       0.18721   0.26027   0.49568   0.00000
O          O       0.00432   0.23974   0.44315   0.00000
O          O       0.49568   0.26026   0.05685   0.00000
O          O       0.44315   0.00432   0.23973   0.00000
O          O       0.05685   0.49568   0.26027   0.00000
O          O       0.05685   0.18721   0.49568   0.00000
O          O       0.44315   0.31279   0.00432   0.00000
Cu         Cu      0.03257   0.25000   0.25000   0.00000
Cu         Cu      0.46743   0.25000   0.25000   0.00000
Cu         Cu      0.25000   0.03257   0.46743   0.00000
Cu         Cu      0.25000   0.46743   0.03257   0.00000
Cu         Cu      0.25000   0.03257   0.25000   0.00000
Cu         Cu      0.25000   0.46743   0.25000   0.00000
Cu         Cu      0.25000   0.25000   0.03257   0.00000
Cu         Cu      0.25000   0.25000   0.46743   0.00000
Cu         Cu      0.03257   0.25000   0.46743   0.00000
Cu         Cu      0.46743   0.25000   0.03257   0.00000
Cu         Cu      0.03257   0.46743   0.25000   0.00000
Cu         Cu      0.46743   0.03257   0.25000   0.00000
C          C       0.60026   0.10027   0.26427   0.00000
C          C       0.89990   0.39990   0.23523   0.00000
C          C       0.53463   0.26477   0.10010   0.00000
C          C       0.96497   0.23523   0.39990   0.00000
C          C       0.76477   0.03503   0.10010   0.00000
C          C       0.73523   0.46497   0.39990   0.00000
C          C       0.60010   0.10010   0.03503   0.00000
C          C       0.89990   0.39990   0.46497   0.00000
C          C       0.76477   0.10010   0.10010   0.00000
C          C       0.73523   0.39990   0.39990   0.00000
C          C       0.60010   0.26477   0.10010   0.00000
C          C       0.89990   0.23523   0.39990   0.00000
C          C       0.53503   0.10010   0.10010   0.00000
C          C       0.96497   0.39990   0.39990   0.00000
C          C       0.76477   0.10010   0.03504   0.00000
C          C       0.73523   0.39990   0.46496   0.00000
C          C       0.60010   0.03504   0.26477   0.00000
C          C       0.89990   0.46496   0.23523   0.00000
C          C       0.53503   0.10010   0.26477   0.00000
C          C       0.96497   0.39990   0.23523   0.00000
C          C       0.60010   0.26477   0.03504   0.00000
C          C       0.89990   0.23523   0.46496   0.00000
C          C       0.60010   0.03504   0.10010   0.00000
C          C       0.89990   0.46496   0.39990   0.00000
C          C       0.53462   0.16887   0.26190   0.00000
C          C       0.96538   0.33113   0.23810   0.00000
C          C       0.53461   0.26190   0.16887   0.00000
C          C       0.96539   0.23810   0.33113   0.00000
C          C       0.76190   0.03462   0.03462   0.00000
C          C       0.73810   0.46538   0.46538   0.00000
C          C       0.66887   0.03462   0.03462   0.00000
C          C       0.83113   0.46538   0.46538   0.00000
C          C       0.76190   0.03462   0.16887   0.00000
C          C       0.73810   0.46538   0.33113   0.00000
C          C       0.66887   0.26190   0.03462   0.00000
C          C       0.83113   0.23810   0.46538   0.00000
C          C       0.53461   0.16887   0.03461   0.00000
C          C       0.96538   0.33113   0.46538   0.00000
C          C       0.76190   0.16887   0.03462   0.00000
C          C       0.73810   0.33113   0.46538   0.00000
C          C       0.66887   0.03462   0.26190   0.00000
C          C       0.83113   0.46538   0.23810   0.00000
C          C       0.53461   0.03462   0.26190   0.00000
C          C       0.96538   0.46538   0.23810   0.00000
C          C       0.53461   0.26190   0.03462   0.00000
C          C       0.96539   0.23810   0.46538   0.00000
C          C       0.53461   0.03462   0.16887   0.00000
C          C       0.96539   0.46538   0.33113   0.00000
C          C       0.55677   0.12173   0.26474   0.00000
C          C       0.94323   0.37827   0.23526   0.00000
C          C       0.55677   0.26474   0.12173   0.00000
C          C       0.94323   0.23526   0.37827   0.00000
C          C       0.76474   0.05677   0.05677   0.00000
C          C       0.73526   0.44323   0.44323   0.00000
C          C       0.62172   0.05677   0.05677   0.00000
C          C       0.87828   0.44323   0.44323   0.00000
C          C       0.76474   0.05677   0.12172   0.00000
C          C       0.73526   0.44323   0.37828   0.00000
C          C       0.62172   0.26474   0.05677   0.00000
C          C       0.87828   0.23526   0.44323   0.00000
C          C       0.55677   0.12172   0.05677   0.00000
C          C       0.94323   0.37827   0.44323   0.00000
C          C       0.76474   0.12172   0.05677   0.00000
C          C       0.73526   0.37828   0.44323   0.00000
C          C       0.62172   0.05677   0.26474   0.00000
C          C       0.87828   0.44323   0.23526   0.00000
C          C       0.55677   0.05677   0.26474   0.00000
C          C       0.94323   0.44323   0.23526   0.00000
C          C       0.55677   0.26474   0.05677   0.00000
C          C       0.94323   0.23526   0.44323   0.00000
C          C       0.55677   0.05677   0.12172   0.00000
C          C       0.94323   0.44323   0.37828   0.00000
H          H       0.61733   0.11733   0.26396   0.00000
H          H       0.88267   0.38267   0.23604   0.00000
H          H       0.50138   0.26396   0.11733   0.00000
H          H       0.99862   0.23604   0.38267   0.00000
H          H       0.76396   0.00138   0.11733   0.00000
H          H       0.73604   0.49862   0.38267   0.00000
H          H       0.61733   0.11733   0.00138   0.00000
H          H       0.88267   0.38267   0.49862   0.00000
H          H       0.76396   0.11733   0.11733   0.00000
H          H       0.73604   0.38267   0.38267   0.00000
H          H       0.61733   0.26396   0.11733   0.00000
H          H       0.88267   0.23604   0.38267   0.00000
H          H       0.50138   0.11733   0.11733   0.00000
H          H       0.99862   0.38267   0.38267   0.00000
H          H       0.76396   0.11733   0.00139   0.00000
H          H       0.73604   0.38267   0.49861   0.00000
H          H       0.61733   0.00138   0.26396   0.00000
H          H       0.88267   0.49861   0.23604   0.00000
H          H       0.50138   0.11733   0.26396   0.00000
H          H       0.99862   0.38267   0.23604   0.00000
H          H       0.61733   0.26396   0.00139   0.00000
H          H       0.88267   0.23604   0.49861   0.00000
H          H       0.61733   0.00138   0.11733   0.00000
H          H       0.88267   0.49861   0.38267   0.00000
O          O       0.55685   0.18722   0.26026   0.00000
O          O       0.94315   0.31278   0.23974   0.00000
O          O       0.50432   0.23974   0.31278   0.00000
O          O       0.99567   0.26026   0.18722   0.00000
O          O       0.73933   0.00432   0.44315   0.00000
O          O       0.76027   0.49568   0.05685   0.00000
O          O       0.68721   0.05685   0.49567   0.00000
O          O       0.81279   0.44315   0.00432   0.00000
O          O       0.76026   0.05685   0.18721   0.00000
O          O       0.73974   0.44315   0.31279   0.00000
O          O       0.68721   0.26026   0.05685   0.00000
O          O       0.81279   0.23974   0.44315   0.00000
O          O       0.99568   0.18721   0.05685   0.00000
O          O       0.50432   0.31279   0.44315   0.00000
O          O       0.73973   0.31279   0.00432   0.00000
O          O       0.76027   0.18721   0.49568   0.00000
O          O       0.81279   0.00432   0.23974   0.00000
O          O       0.68721   0.49568   0.26026   0.00000
O          O       0.50432   0.44315   0.23974   0.00000
O          O       0.99568   0.05685   0.26026   0.00000
O          O       0.94315   0.23974   0.00432   0.00000
O          O       0.55685   0.26026   0.49568   0.00000
O          O       0.55685   0.49568   0.18721   0.00000
O          O       0.94315   0.00432   0.31279   0.00000
O          O       0.55684   0.26026   0.18722   0.00000
O          O       0.94315   0.23974   0.31278   0.00000
O          O       0.50432   0.31278   0.23974   0.00000
O          O       0.99568   0.18722   0.26026   0.00000
O          O       0.73974   0.44315   0.00432   0.00000
O          O       0.76026   0.05685   0.49568   0.00000
O          O       0.68721   0.49568   0.05685   0.00000
O          O       0.81279   0.00432   0.44315   0.00000
O          O       0.76026   0.18721   0.05685   0.00000
O          O       0.73974   0.31279   0.44315   0.00000
O          O       0.68721   0.05685   0.26026   0.00000
O          O       0.81279   0.44315   0.23974   0.00000
O          O       0.99568   0.05685   0.18721   0.00000
O          O       0.50432   0.44315   0.31279   0.00000
O          O       0.73973   0.00432   0.31279   0.00000
O          O       0.76026   0.49568   0.18721   0.00000
O          O       0.81279   0.23973   0.00432   0.00000
O          O       0.68721   0.26027   0.49568   0.00000
O          O       0.50432   0.23974   0.44315   0.00000
O          O       0.99568   0.26026   0.05685   0.00000
O          O       0.94315   0.00432   0.23973   0.00000
O          O       0.55685   0.49568   0.26027   0.00000
O          O       0.55685   0.18721   0.49568   0.00000
O          O       0.94315   0.31279   0.00432   0.00000
Cu         Cu      0.53257   0.25000   0.25000   0.00000
Cu         Cu      0.96743   0.25000   0.25000   0.00000
Cu         Cu      0.75000   0.03257   0.46743   0.00000
Cu         Cu      0.75000   0.46743   0.03257   0.00000
Cu         Cu      0.75000   0.03257   0.25000   0.00000
Cu         Cu      0.75000   0.46743   0.25000   0.00000
Cu         Cu      0.75000   0.25000   0.03257   0.00000
Cu         Cu      0.75000   0.25000   0.46743   0.00000
Cu         Cu      0.53257   0.25000   0.46743   0.00000
Cu         Cu      0.96743   0.25000   0.03257   0.00000
Cu         Cu      0.53257   0.46743   0.25000   0.00000
Cu         Cu      0.96743   0.03257   0.25000   0.00000
C          C       0.10026   0.60026   0.26427   0.00000
C          C       0.39990   0.89990   0.23523   0.00000
C          C       0.03463   0.76477   0.10010   0.00000
C          C       0.46497   0.73523   0.39990   0.00000
C          C       0.26477   0.53503   0.10010   0.00000
C          C       0.23523   0.96497   0.39990   0.00000
C          C       0.10010   0.60010   0.03503   0.00000
C          C       0.39990   0.89990   0.46497   0.00000
C          C       0.26477   0.60010   0.10010   0.00000
C          C       0.23523   0.89990   0.39990   0.00000
C          C       0.10010   0.76477   0.10010   0.00000
C          C       0.39990   0.73523   0.39990   0.00000
C          C       0.03503   0.60010   0.10010   0.00000
C          C       0.46497   0.89990   0.39990   0.00000
C          C       0.26477   0.60010   0.03504   0.00000
C          C       0.23523   0.89990   0.46496   0.00000
C          C       0.10010   0.53504   0.26477   0.00000
C          C       0.39990   0.96496   0.23523   0.00000
C          C       0.03503   0.60010   0.26477   0.00000
C          C       0.46497   0.89990   0.23523   0.00000
C          C       0.10010   0.76477   0.03504   0.00000
C          C       0.39990   0.73523   0.46496   0.00000
C          C       0.10010   0.53504   0.10010   0.00000
C          C       0.39990   0.96496   0.39990   0.00000
C          C       0.03462   0.66887   0.26190   0.00000
C          C       0.46538   0.83113   0.23810   0.00000
C          C       0.03461   0.76190   0.16887   0.00000
C          C       0.46539   0.73810   0.33113   0.00000
C          C       0.26190   0.53462   0.03462   0.00000
C          C       0.23810   0.96538   0.46538   0.00000
C          C       0.16887   0.53462   0.03462   0.00000
C          C       0.33113   0.96538   0.46538   0.00000
C          C       0.26190   0.53461   0.16887   0.00000
C          C       0.23810   0.96538   0.33113   0.00000
C          C       0.16887   0.76190   0.03462   0.00000
C          C       0.33113   0.73810   0.46538   0.00000
C          C       0.03461   0.66887   0.03461   0.00000
C          C       0.46538   0.83113   0.46538   0.00000
C          C       0.26190   0.66887   0.03462   0.00000
C          C       0.23810   0.83113   0.46538   0.00000
C          C       0.16887   0.53462   0.26190   0.00000
C          C       0.33113   0.96538   0.23810   0.00000
C          C       0.03461   0.53462   0.26190   0.00000
C          C       0.46538   0.96538   0.23810   0.00000
C          C       0.03461   0.76190   0.03462   0.00000
C          C       0.46539   0.73810   0.46538   0.00000
C          C       0.03461   0.53462   0.16887   0.00000
C          C       0.46539   0.96538   0.33113   0.00000
C          C       0.05677   0.62173   0.26474   0.00000
C          C       0.44323   0.87827   0.23526   0.00000
C          C       0.05677   0.76474   0.12173   0.00000
C          C       0.44323   0.73526   0.37827   0.00000
C          C       0.26474   0.55677   0.05677   0.00000
C          C       0.23526   0.94323   0.44323   0.00000
C          C       0.12172   0.55677   0.05677   0.00000
C          C       0.37828   0.94323   0.44323   0.00000
C          C       0.26474   0.55677   0.12172   0.00000
C          C       0.23526   0.94323   0.37828   0.00000
C          C       0.12172   0.76474   0.05677   0.00000
C          C       0.37828   0.73526   0.44323   0.00000
C          C       0.05677   0.62172   0.05677   0.00000
C          C       0.44323   0.87827   0.44323   0.00000
C          C       0.26474   0.62172   0.05677   0.00000
C          C       0.23526   0.87828   0.44323   0.00000
C          C       0.12172   0.55677   0.26474   0.00000
C          C       0.37828   0.94323   0.23526   0.00000
C          C       0.05677   0.55677   0.26474   0.00000
C          C       0.44323   0.94323   0.23526   0.00000
C          C       0.05677   0.76474   0.05677   0.00000
C          C       0.44323   0.73526   0.44323   0.00000
C          C       0.05677   0.55677   0.12172   0.00000
C          C       0.44323   0.94323   0.37828   0.00000
H          H       0.11733   0.61733   0.26396   0.00000
H          H       0.38267   0.88267   0.23604   0.00000
H          H       0.00138   0.76396   0.11733   0.00000
H          H       0.49862   0.73604   0.38267   0.00000
H          H       0.26396   0.50138   0.11733   0.00000
H          H       0.23604   0.99862   0.38267   0.00000
H          H       0.11733   0.61733   0.00138   0.00000
H          H       0.38267   0.88267   0.49862   0.00000
H          H       0.26396   0.61733   0.11733   0.00000
H          H       0.23604   0.88267   0.38267   0.00000
H          H       0.11733   0.76396   0.11733   0.00000
H          H       0.38267   0.73604   0.38267   0.00000
H          H       0.00138   0.61733   0.11733   0.00000
H          H       0.49862   0.88267   0.38267   0.00000
H          H       0.26396   0.61733   0.00139   0.00000
H          H       0.23604   0.88267   0.49861   0.00000
H          H       0.11733   0.50138   0.26396   0.00000
H          H       0.38267   0.99861   0.23604   0.00000
H          H       0.00138   0.61733   0.26396   0.00000
H          H       0.49862   0.88267   0.23604   0.00000
H          H       0.11733   0.76396   0.00139   0.00000
H          H       0.38267   0.73604   0.49861   0.00000
H          H       0.11733   0.50138   0.11733   0.00000
H          H       0.38267   0.99862   0.38267   0.00000
O          O       0.05685   0.68722   0.26026   0.00000
O          O       0.44315   0.81278   0.23974   0.00000
O          O       0.00433   0.73974   0.31278   0.00000
O          O       0.49567   0.76026   0.18722   0.00000
O          O       0.23933   0.50433   0.44315   0.00000
O          O       0.26027   0.99567   0.05685   0.00000
O          O       0.18721   0.55685   0.49567   0.00000
O          O       0.31279   0.94315   0.00432   0.00000
O          O       0.26026   0.55685   0.18721   0.00000
O          O       0.23974   0.94315   0.31279   0.00000
O          O       0.18721   0.76026   0.05685   0.00000
O          O       0.31279   0.73974   0.44315   0.00000
O          O       0.49568   0.68721   0.05685   0.00000
O          O       0.00432   0.81279   0.44315   0.00000
O          O       0.23973   0.81279   0.00432   0.00000
O          O       0.26027   0.68721   0.49568   0.00000
O          O       0.31279   0.50432   0.23974   0.00000
O          O       0.18721   0.99568   0.26026   0.00000
O          O       0.00432   0.94315   0.23974   0.00000
O          O       0.49568   0.55685   0.26026   0.00000
O          O       0.44315   0.73974   0.00432   0.00000
O          O       0.05685   0.76026   0.49568   0.00000
O          O       0.05685   0.99568   0.18721   0.00000
O          O       0.44315   0.50432   0.31279   0.00000
O          O       0.05684   0.76026   0.18722   0.00000
O          O       0.44315   0.73974   0.31278   0.00000
O          O       0.00432   0.81278   0.23974   0.00000
O          O       0.49568   0.68722   0.26026   0.00000
O          O       0.23974   0.94315   0.00432   0.00000
O          O       0.26026   0.55685   0.49568   0.00000
O          O       0.18721   0.99568   0.05685   0.00000
O          O       0.31279   0.50432   0.44315   0.00000
O          O       0.26026   0.68721   0.05685   0.00000
O          O       0.23974   0.81279   0.44315   0.00000
O          O       0.18721   0.55685   0.26026   0.00000
O          O       0.31279   0.94315   0.23974   0.00000
O          O       0.49568   0.55685   0.18721   0.00000
O          O       0.00432   0.94315   0.31279   0.00000
O          O       0.23973   0.50432   0.31279   0.00000
O          O       0.26026   0.99568   0.18721   0.00000
O          O       0.31279   0.73973   0.00432   0.00000
O          O       0.18721   0.76027   0.49568   0.00000
O          O       0.00432   0.73974   0.44315   0.00000
O          O       0.49568   0.76026   0.05685   0.00000
O          O       0.44315   0.50432   0.23973   0.00000
O          O       0.05685   0.99568   0.26027   0.00000
O          O       0.05685   0.68721   0.49568   0.00000
O          O       0.44315   0.81279   0.00432   0.00000
Cu         Cu      0.03257   0.75000   0.25000   0.00000
Cu         Cu      0.46743   0.75000   0.25000   0.00000
Cu         Cu      0.25000   0.53257   0.46743   0.00000
Cu         Cu      0.25000   0.96743   0.03257   0.00000
Cu         Cu      0.25000   0.53257   0.25000   0.00000
Cu         Cu      0.25000   0.96743   0.25000   0.00000
Cu         Cu      0.25000   0.75000   0.03257   0.00000
Cu         Cu      0.25000   0.75000   0.46743   0.00000
Cu         Cu      0.03257   0.75000   0.46743   0.00000
Cu         Cu      0.46743   0.75000   0.03257   0.00000
Cu         Cu      0.03257   0.96743   0.25000   0.00000
Cu         Cu      0.46743   0.53257   0.25000   0.00000
C          C       0.60026   0.60026   0.26427   0.00000
C          C       0.89990   0.89990   0.23523   0.00000
C          C       0.53463   0.76477   0.10010   0.00000
C          C       0.96497   0.73523   0.39990   0.00000
C          C       0.76477   0.53503   0.10010   0.00000
C          C       0.73523   0.96497   0.39990   0.00000
C          C       0.60010   0.60010   0.03503   0.00000
C          C       0.89990   0.89990   0.46497   0.00000
C          C       0.76477   0.60010   0.10010   0.00000
C          C       0.73523   0.89990   0.39990   0.00000
C          C       0.60010   0.76477   0.10010   0.00000
C          C       0.89990   0.73523   0.39990   0.00000
C          C       0.53503   0.60010   0.10010   0.00000
C          C       0.96497   0.89990   0.39990   0.00000
C          C       0.76477   0.60010   0.03504   0.00000
C          C       0.73523   0.89990   0.46496   0.00000
C          C       0.60010   0.53504   0.26477   0.00000
C          C       0.89990   0.96496   0.23523   0.00000
C          C       0.53503   0.60010   0.26477   0.00000
C          C       0.96497   0.89990   0.23523   0.00000
C          C       0.60010   0.76477   0.03504   0.00000
C          C       0.89990   0.73523   0.46496   0.00000
C          C       0.60010   0.53504   0.10010   0.00000
C          C       0.89990   0.96496   0.39990   0.00000
C          C       0.53462   0.66887   0.26190   0.00000
C          C       0.96538   0.83113   0.23810   0.00000
C          C       0.53461   0.76190   0.16887   0.00000
C          C       0.96539   0.73810   0.33113   0.00000
C          C       0.76190   0.53462   0.03462   0.00000
C          C       0.73810   0.96538   0.46538   0.00000
C          C       0.66887   0.53462   0.03462   0.00000
C          C       0.83113   0.96538   0.46538   0.00000
C          C       0.76190   0.53461   0.16887   0.00000
C          C       0.73810   0.96538   0.33113   0.00000
C          C       0.66887   0.76190   0.03462   0.00000
C          C       0.83113   0.73810   0.46538   0.00000
C          C       0.53461   0.66887   0.03461   0.00000
C          C       0.96538   0.83113   0.46538   0.00000
C          C       0.76190   0.66887   0.03462   0.00000
C          C       0.73810   0.83113   0.46538   0.00000
C          C       0.66887   0.53462   0.26190   0.00000
C          C       0.83113   0.96538   0.23810   0.00000
C          C       0.53461   0.53462   0.26190   0.00000
C          C       0.96538   0.96538   0.23810   0.00000
C          C       0.53461   0.76190   0.03462   0.00000
C          C       0.96539   0.73810   0.46538   0.00000
C          C       0.53461   0.53462   0.16887   0.00000
C          C       0.96539   0.96538   0.33113   0.00000
C          C       0.55677   0.62173   0.26474   0.00000
C          C       0.94323   0.87827   0.23526   0.00000
C          C       0.55677   0.76474   0.12173   0.00000
C          C       0.94323   0.73526   0.37827   0.00000
C          C       0.76474   0.55677   0.05677   0.00000
C          C       0.73526   0.94323   0.44323   0.00000
C          C       0.62172   0.55677   0.05677   0.00000
C          C       0.87828   0.94323   0.44323   0.00000
C          C       0.76474   0.55677   0.12172   0.00000
C          C       0.73526   0.94323   0.37828   0.00000
C          C       0.62172   0.76474   0.05677   0.00000
C          C       0.87828   0.73526   0.44323   0.00000
C          C       0.55677   0.62172   0.05677   0.00000
C          C       0.94323   0.87827   0.44323   0.00000
C          C       0.76474   0.62172   0.05677   0.00000
C          C       0.73526   0.87828   0.44323   0.00000
C          C       0.62172   0.55677   0.26474   0.00000
C          C       0.87828   0.94323   0.23526   0.00000
C          C       0.55677   0.55677   0.26474   0.00000
C          C       0.94323   0.94323   0.23526   0.00000
C          C       0.55677   0.76474   0.05677   0.00000
C          C       0.94323   0.73526   0.44323   0.00000
C          C       0.55677   0.55677   0.12172   0.00000
C          C       0.94323   0.94323   0.37828   0.00000
H          H       0.61733   0.61733   0.26396   0.00000
H          H       0.88267   0.88267   0.23604   0.00000
H          H       0.50138   0.76396   0.11733   0.00000
H          H       0.99862   0.73604   0.38267   0.00000
H          H       0.76396   0.50138   0.11733   0.00000
H          H       0.73604   0.99862   0.38267   0.00000
H          H       0.61733   0.61733   0.00138   0.00000
H          H       0.88267   0.88267   0.49862   0.00000
H          H       0.76396   0.61733   0.11733   0.00000
H          H       0.73604   0.88267   0.38267   0.00000
H          H       0.61733   0.76396   0.11733   0.00000
H          H       0.88267   0.73604   0.38267   0.00000
H          H       0.50138   0.61733   0.11733   0.00000
H          H       0.99862   0.88267   0.38267   0.00000
H          H       0.76396   0.61733   0.00139   0.00000
H          H       0.73604   0.88267   0.49861   0.00000
H          H       0.61733   0.50138   0.26396   0.00000
H          H       0.88267   0.99861   0.23604   0.00000
H          H       0.50138   0.61733   0.26396   0.00000
H          H       0.99862   0.88267   0.23604   0.00000
H          H       0.61733   0.76396   0.00139   0.00000
H          H       0.88267   0.73604   0.49861   0.00000
H          H       0.61733   0.50138   0.11733   0.00000
H          H       0.88267   0.99862   0.38267   0.00000
O          O       0.55685   0.68722   0.26026   0.00000
O          O       0.94315   0.81278   0.23974   0.00000
O          O       0.50433   0.73974   0.31278   0.00000
O          O       0.99567   0.76026   0.18722   0.00000
O          O       0.73933   0.50433   0.44315   0.00000
O          O       0.76027   0.99567   0.05685   0.00000
O          O       0.68721   0.55685   0.49567   0.00000
O          O       0.81279   0.94315   0.00432   0.00000
O          O       0.76026   0.55685   0.18721   0.00000
O          O       0.73974   0.94315   0.31279   0.00000
O          O       0.68721   0.76026   0.05685   0.00000
O          O       0.81279   0.73974   0.44315   0.00000
O          O       0.99568   0.68721   0.05685   0.00000
O          O       0.50432   0.81279   0.44315   0.00000
O          O       0.73973   0.81279   0.00432   0.00000
O          O       0.76027   0.68721   0.49568   0.00000
O          O       0.81279   0.50432   0.23974   0.00000
O          O       0.68721   0.99568   0.26026   0.00000
O          O       0.50432   0.94315   0.23974   0.00000
O          O       0.99568   0.55685   0.26026   0.00000
O          O       0.94315   0.73974   0.00432   0.00000
O          O       0.55685   0.76026   0.49568   0.00000
O          O       0.55685   0.99568   0.18721   0.00000
O          O       0.94315   0.50432   0.31279   0.00000
O          O       0.55685   0.76026   0.18722   0.00000
O          O       0.94315   0.73974   0.31278   0.00000
O          O       0.50432   0.81278   0.23974   0.00000
O          O       0.99568   0.68722   0.26026   0.00000
O          O       0.73974   0.94315   0.00432   0.00000
O          O       0.76026   0.55685   0.49568   0.00000
O          O       0.68721   0.99568   0.05685   0.00000
O          O       0.81279   0.50432   0.44315   0.00000
O          O       0.76026   0.68721   0.05685   0.00000
O          O       0.73974   0.81279   0.44315   0.00000
O          O       0.68721   0.55685   0.26026   0.00000
O          O       0.81279   0.94315   0.23974   0.00000
O          O       0.99568   0.55685   0.18721   0.00000
O          O       0.50432   0.94315   0.31279   0.00000
O          O       0.73973   0.50432   0.31279   0.00000
O          O       0.76026   0.99568   0.18721   0.00000
O          O       0.81279   0.73973   0.00432   0.00000
O          O       0.68721   0.76027   0.49568   0.00000
O          O       0.50432   0.73974   0.44315   0.00000
O          O       0.99568   0.76026   0.05685   0.00000
O          O       0.94315   0.50432   0.23973   0.00000
O          O       0.55685   0.99568   0.26027   0.00000
O          O       0.55685   0.68721   0.49568   0.00000
O          O       0.94315   0.81279   0.00432   0.00000
Cu         Cu      0.53257   0.75000   0.25000   0.00000
Cu         Cu      0.96743   0.75000   0.25000   0.00000
Cu         Cu      0.75000   0.53257   0.46743   0.00000
Cu         Cu      0.75000   0.96743   0.03257   0.00000
Cu         Cu      0.75000   0.53257   0.25000   0.00000
Cu         Cu      0.75000   0.96743   0.25000   0.00000
Cu         Cu      0.75000   0.75000   0.03257   0.00000
Cu         Cu      0.75000   0.75000   0.46743   0.00000
Cu         Cu      0.53257   0.75000   0.46743   0.00000
Cu         Cu      0.96743   0.75000   0.03257   0.00000
Cu         Cu      0.53257   0.96743   0.25000   0.00000
Cu         Cu      0.96743   0.53257   0.25000   0.00000
C          C       0.10026   0.10026   0.76427   0.00000
C          C       0.39990   0.39990   0.73523   0.00000
C          C       0.03463   0.26477   0.60010   0.00000
C          C       0.46497   0.23523   0.89990   0.00000
C          C       0.26477   0.03503   0.60010   0.00000
C          C       0.23523   0.46497   0.89990   0.00000
C          C       0.10010   0.10010   0.53503   0.00000
C          C       0.39990   0.39990   0.96497   0.00000
C          C       0.26477   0.10010   0.60010   0.00000
C          C       0.23523   0.39990   0.89990   0.00000
C          C       0.10010   0.26477   0.60010   0.00000
C          C       0.39990   0.23523   0.89990   0.00000
C          C       0.03503   0.10010   0.60010   0.00000
C          C       0.46497   0.39990   0.89990   0.00000
C          C       0.26477   0.10010   0.53504   0.00000
C          C       0.23523   0.39990   0.96496   0.00000
C          C       0.10010   0.03504   0.76477   0.00000
C          C       0.39990   0.46496   0.73523   0.00000
C          C       0.03503   0.10010   0.76477   0.00000
C          C       0.46497   0.39990   0.73523   0.00000
C          C       0.10010   0.26477   0.53504   0.00000
C          C       0.39990   0.23523   0.96496   0.00000
C          C       0.10010   0.03504   0.60010   0.00000
C          C       0.39990   0.46496   0.89990   0.00000
C          C       0.03462   0.16887   0.76190   0.00000
C          C       0.46538   0.33113   0.73810   0.00000
C          C       0.03461   0.26190   0.66887   0.00000
C          C       0.46539   0.23810   0.83113   0.00000
C          C       0.26190   0.03462   0.53462   0.00000
C          C       0.23810   0.46538   0.96538   0.00000
C          C       0.16887   0.03462   0.53462   0.00000
C          C       0.33113   0.46538   0.96538   0.00000
C          C       0.26190   0.03462   0.66887   0.00000
C          C       0.23810   0.46538   0.83113   0.00000
C          C       0.16887   0.26190   0.53462   0.00000
C          C       0.33113   0.23810   0.96538   0.00000
C          C       0.03462   0.16887   0.53461   0.00000
C          C       0.46538   0.33113   0.96539   0.00000
C          C       0.26190   0.16887   0.53462   0.00000
C          C       0.23810   0.33113   0.96538   0.00000
C          C       0.16887   0.03462   0.76190   0.00000
C          C       0.33113   0.46538   0.73810   0.00000
C          C       0.03461   0.03462   0.76190   0.00000
C          C       0.46538   0.46538   0.73810   0.00000
C          C       0.03461   0.26190   0.53462   0.00000
C          C       0.46539   0.23810   0.96538   0.00000
C          C       0.03461   0.03462   0.66887   0.00000
C          C       0.46539   0.46538   0.83113   0.00000
C          C       0.05677   0.12173   0.76474   0.00000
C          C       0.44323   0.37827   0.73526   0.00000
C          C       0.05677   0.26474   0.62173   0.00000
C          C       0.44323   0.23526   0.87827   0.00000
C          C       0.26474   0.05677   0.55677   0.00000
C          C       0.23526   0.44323   0.94323   0.00000
C          C       0.12172   0.05677   0.55677   0.00000
C          C       0.37828   0.44323   0.94323   0.00000
C          C       0.26474   0.05677   0.62172   0.00000
C          C       0.23526   0.44323   0.87828   0.00000
C          C       0.12172   0.26474   0.55677   0.00000
C          C       0.37828   0.23526   0.94323   0.00000
C          C       0.05677   0.12172   0.55677   0.00000
C          C       0.44323   0.37828   0.94323   0.00000
C          C       0.26474   0.12172   0.55677   0.00000
C          C       0.23526   0.37828   0.94323   0.00000
C          C       0.12172   0.05677   0.76474   0.00000
C          C       0.37828   0.44323   0.73526   0.00000
C          C       0.05677   0.05677   0.76474   0.00000
C          C       0.44323   0.44323   0.73526   0.00000
C          C       0.05677   0.26474   0.55677   0.00000
C          C       0.44323   0.23526   0.94323   0.00000
C          C       0.05677   0.05677   0.62172   0.00000
C          C       0.44323   0.44323   0.87828   0.00000
H          H       0.11733   0.11733   0.76396   0.00000
H          H       0.38267   0.38267   0.73604   0.00000
H          H       0.00138   0.26396   0.61733   0.00000
H          H       0.49862   0.23604   0.88267   0.00000
H          H       0.26396   0.00138   0.61733   0.00000
H          H       0.23604   0.49862   0.88267   0.00000
H          H       0.11733   0.11733   0.50138   0.00000
H          H       0.38267   0.38267   0.99862   0.00000
H          H       0.26396   0.11733   0.61733   0.00000
H          H       0.23604   0.38267   0.88267   0.00000
H          H       0.11733   0.26396   0.61733   0.00000
H          H       0.38267   0.23604   0.88267   0.00000
H          H       0.00138   0.11733   0.61733   0.00000
H          H       0.49862   0.38267   0.88267   0.00000
H          H       0.26396   0.11733   0.50138   0.00000
H          H       0.23604   0.38267   0.99862   0.00000
H          H       0.11733   0.00138   0.76396   0.00000
H          H       0.38267   0.49861   0.73604   0.00000
H          H       0.00138   0.11733   0.76396   0.00000
H          H       0.49862   0.38267   0.73604   0.00000
H          H       0.11733   0.26396   0.50138   0.00000
H          H       0.38267   0.23604   0.99862   0.00000
H          H       0.11733   0.00139   0.61733   0.00000
H          H       0.38267   0.49862   0.88267   0.00000
O          O       0.05685   0.18722   0.76026   0.00000
O          O       0.44315   0.31278   0.73974   0.00000
O          O       0.00432   0.23974   0.81278   0.00000
O          O       0.49567   0.26026   0.68722   0.00000
O          O       0.23933   0.00432   0.94315   0.00000
O          O       0.26027   0.49568   0.55685   0.00000
O          O       0.18721   0.05685   0.99567   0.00000
O          O       0.31279   0.44315   0.50433   0.00000
O          O       0.26026   0.05685   0.68721   0.00000
O          O       0.23974   0.44315   0.81279   0.00000
O          O       0.18721   0.26026   0.55685   0.00000
O          O       0.31279   0.23974   0.94315   0.00000
O          O       0.49568   0.18721   0.55685   0.00000
O          O       0.00432   0.31279   0.94315   0.00000
O          O       0.23973   0.31279   0.50432   0.00000
O          O       0.26027   0.18721   0.99568   0.00000
O          O       0.31279   0.00432   0.73974   0.00000
O          O       0.18721   0.49568   0.76026   0.00000
O          O       0.00432   0.44315   0.73974   0.00000
O          O       0.49568   0.05685   0.76026   0.00000
O          O       0.44315   0.23974   0.50432   0.00000
O          O       0.05685   0.26026   0.99568   0.00000
O          O       0.05685   0.49568   0.68721   0.00000
O          O       0.44315   0.00432   0.81279   0.00000
O          O       0.05685   0.26026   0.68722   0.00000
O          O       0.44316   0.23974   0.81278   0.00000
O          O       0.00432   0.31278   0.73974   0.00000
O          O       0.49568   0.18722   0.76026   0.00000
O          O       0.23974   0.44315   0.50432   0.00000
O          O       0.26026   0.05685   0.99568   0.00000
O          O       0.18721   0.49568   0.55685   0.00000
O          O       0.31279   0.00432   0.94315   0.00000
O          O       0.26026   0.18721   0.55685   0.00000
O          O       0.23974   0.31279   0.94315   0.00000
O          O       0.18721   0.05685   0.76026   0.00000
O          O       0.31279   0.44315   0.73974   0.00000
O          O       0.49568   0.05685   0.68721   0.00000
O          O       0.00432   0.44315   0.81279   0.00000
O          O       0.23973   0.00432   0.81279   0.00000
O          O       0.26027   0.49568   0.68721   0.00000
O          O       0.31279   0.23973   0.50432   0.00000
O          O       0.18721   0.26027   0.99568   0.00000
O          O       0.00432   0.23974   0.94315   0.00000
O          O       0.49568   0.26026   0.55685   0.00000
O          O       0.44315   0.00432   0.73973   0.00000
O          O       0.05685   0.49568   0.76027   0.00000
O          O       0.05685   0.18721   0.99568   0.00000
O          O       0.44315   0.31279   0.50432   0.00000
Cu         Cu      0.03257   0.25000   0.75000   0.00000
Cu         Cu      0.46743   0.25000   0.75000   0.00000
Cu         Cu      0.25000   0.03257   0.96743   0.00000
Cu         Cu      0.25000   0.46743   0.53257   0.00000
Cu         Cu      0.25000   0.03257   0.75000   0.00000
Cu         Cu      0.25000   0.46743   0.75000   0.00000
Cu         Cu      0.25000   0.25000   0.53257   0.00000
Cu         Cu      0.25000   0.25000   0.96743   0.00000
Cu         Cu      0.03257   0.25000   0.96743   0.00000
Cu         Cu      0.46743   0.25000   0.53257   0.00000
Cu         Cu      0.03257   0.46743   0.75000   0.00000
Cu         Cu      0.46743   0.03257   0.75000   0.00000
C          C       0.60026   0.10026   0.76427   0.00000
C          C       0.89990   0.39990   0.73523   0.00000
C          C       0.53463   0.26477   0.60010   0.00000
C          C       0.96497   0.23523   0.89990   0.00000
C          C       0.76477   0.03503   0.60010   0.00000
C          C       0.73523   0.46497   0.89990   0.00000
C          C       0.60010   0.10010   0.53503   0.00000
C          C       0.89990   0.39990   0.96497   0.00000
C          C       0.76477   0.10010   0.60010   0.00000
C          C       0.73523   0.39990   0.89990   0.00000
C          C       0.60010   0.26477   0.60010   0.00000
C          C       0.89990   0.23523   0.89990   0.00000
C          C       0.53503   0.10010   0.60010   0.00000
C          C       0.96497   0.39990   0.89990   0.00000
C          C       0.76477   0.10010   0.53504   0.00000
C          C       0.73523   0.39990   0.96496   0.00000
C          C       0.60010   0.03504   0.76477   0.00000
C          C       0.89990   0.46496   0.73523   0.00000
C          C       0.53503   0.10010   0.76477   0.00000
C          C       0.96497   0.39990   0.73523   0.00000
C          C       0.60010   0.26477   0.53504   0.00000
C          C       0.89990   0.23523   0.96496   0.00000
C          C       0.60010   0.03504   0.60010   0.00000
C          C       0.89990   0.46496   0.89990   0.00000
C          C       0.53462   0.16887   0.76190   0.00000
C          C       0.96538   0.33113   0.73810   0.00000
C          C       0.53461   0.26190   0.66887   0.00000
C          C       0.96539   0.23810   0.83113   0.00000
C          C       0.76190   0.03462   0.53462   0.00000
C          C       0.73810   0.46538   0.96538   0.00000
C          C       0.66887   0.03462   0.53462   0.00000
C          C       0.83113   0.46538   0.96538   0.00000
C          C       0.76190   0.03462   0.66887   0.00000
C          C       0.73810   0.46538   0.83113   0.00000
C          C       0.66887   0.26190   0.53462   0.00000
C          C       0.83113   0.23810   0.96538   0.00000
C          C       0.53462   0.16887   0.53461   0.00000
C          C       0.96538   0.33113   0.96539   0.00000
C          C       0.76190   0.16887   0.53462   0.00000
C          C       0.73810   0.33113   0.96538   0.00000
C          C       0.66887   0.03462   0.76190   0.00000
C          C       0.83113   0.46538   0.73810   0.00000
C          C       0.53461   0.03462   0.76190   0.00000
C          C       0.96538   0.46538   0.73810   0.00000
C          C       0.53461   0.26190   0.53462   0.00000
C          C       0.96539   0.23810   0.96538   0.00000
C          C       0.53461   0.03462   0.66887   0.00000
C          C       0.96539   0.46538   0.83113   0.00000
C          C       0.55677   0.12173   0.76474   0.00000
C          C       0.94323   0.37827   0.73526   0.00000
C          C       0.55677   0.26474   0.62173   0.00000
C          C       0.94323   0.23526   0.87827   0.00000
C          C       0.76474   0.05677   0.55677   0.00000
C          C       0.73526   0.44323   0.94323   0.00000
C          C       0.62172   0.05677   0.55677   0.00000
C          C       0.87828   0.44323   0.94323   0.00000
C          C       0.76474   0.05677   0.62172   0.00000
C          C       0.73526   0.44323   0.87828   0.00000
C          C       0.62172   0.26474   0.55677   0.00000
C          C       0.87828   0.23526   0.94323   0.00000
C          C       0.55677   0.12172   0.55677   0.00000
C          C       0.94323   0.37828   0.94323   0.00000
C          C       0.76474   0.12172   0.55677   0.00000
C          C       0.73526   0.37828   0.94323   0.00000
C          C       0.62172   0.05677   0.76474   0.00000
C          C       0.87828   0.44323   0.73526   0.00000
C          C       0.55677   0.05677   0.76474   0.00000
C          C       0.94323   0.44323   0.73526   0.00000
C          C       0.55677   0.26474   0.55677   0.00000
C          C       0.94323   0.23526   0.94323   0.00000
C          C       0.55677   0.05677   0.62172   0.00000
C          C       0.94323   0.44323   0.87828   0.00000
H          H       0.61733   0.11733   0.76396   0.00000
H          H       0.88267   0.38267   0.73604   0.00000
H          H       0.50138   0.26396   0.61733   0.00000
H          H       0.99862   0.23604   0.88267   0.00000
H          H       0.76396   0.00138   0.61733   0.00000
H          H       0.73604   0.49862   0.88267   0.00000
H          H       0.61733   0.11733   0.50138   0.00000
H          H       0.88267   0.38267   0.99862   0.00000
H          H       0.76396   0.11733   0.61733   0.00000
H          H       0.73604   0.38267   0.88267   0.00000
H          H       0.61733   0.26396   0.61733   0.00000
H          H       0.88267   0.23604   0.88267   0.00000
H          H       0.50138   0.11733   0.61733   0.00000
H          H       0.99862   0.38267   0.88267   0.00000
H          H       0.76396   0.11733   0.50138   0.00000
H          H       0.73604   0.38267   0.99862   0.00000
H          H       0.61733   0.00138   0.76396   0.00000
H          H       0.88267   0.49861   0.73604   0.00000
H          H       0.50138   0.11733   0.76396   0.00000
H          H       0.99862   0.38267   0.73604   0.00000
H          H       0.61733   0.26396   0.50138   0.00000
H          H       0.88267   0.23604   0.99862   0.00000
H          H       0.61733   0.00139   0.61733   0.00000
H          H       0.88267   0.49862   0.88267   0.00000
O          O       0.55685   0.18722   0.76026   0.00000
O          O       0.94315   0.31278   0.73974   0.00000
O          O       0.50432   0.23974   0.81278   0.00000
O          O       0.99567   0.26026   0.68722   0.00000
O          O       0.73933   0.00432   0.94315   0.00000
O          O       0.76027   0.49568   0.55685   0.00000
O          O       0.68721   0.05685   0.99567   0.00000
O          O       0.81279   0.44315   0.50433   0.00000
O          O       0.76026   0.05685   0.68721   0.00000
O          O       0.73974   0.44315   0.81279   0.00000
O          O       0.68721   0.26026   0.55685   0.00000
O          O       0.81279   0.23974   0.94315   0.00000
O          O       0.99568   0.18721   0.55685   0.00000
O          O       0.50432   0.31279   0.94315   0.00000
O          O       0.73973   0.31279   0.50432   0.00000
O          O       0.76027   0.18721   0.99568   0.00000
O          O       0.81279   0.00432   0.73974   0.00000
O          O       0.68721   0.49568   0.76026   0.00000
O          O       0.50432   0.44315   0.73974   0.00000
O          O       0.99568   0.05685   0.76026   0.00000
O          O       0.94315   0.23974   0.50432   0.00000
O          O       0.55685   0.26026   0.99568   0.00000
O          O       0.55685   0.49568   0.68721   0.00000
O          O       0.94315   0.00432   0.81279   0.00000
O          O       0.55685   0.26026   0.68722   0.00000
O          O       0.94315   0.23974   0.81278   0.00000
O          O       0.50432   0.31278   0.73974   0.00000
O          O       0.99568   0.18722   0.76026   0.00000
O          O       0.73974   0.44315   0.50432   0.00000
O          O       0.76026   0.05685   0.99568   0.00000
O          O       0.68721   0.49568   0.55685   0.00000
O          O       0.81279   0.00432   0.94315   0.00000
O          O       0.76026   0.18721   0.55685   0.00000
O          O       0.73974   0.31279   0.94315   0.00000
O          O       0.68721   0.05685   0.76026   0.00000
O          O       0.81279   0.44315   0.73974   0.00000
O          O       0.99568   0.05685   0.68721   0.00000
O          O       0.50432   0.44315   0.81279   0.00000
O          O       0.73973   0.00432   0.81279   0.00000
O          O       0.76026   0.49568   0.68721   0.00000
O          O       0.81279   0.23973   0.50432   0.00000
O          O       0.68721   0.26027   0.99568   0.00000
O          O       0.50432   0.23974   0.94315   0.00000
O          O       0.99568   0.26026   0.55685   0.00000
O          O       0.94315   0.00432   0.73973   0.00000
O          O       0.55685   0.49568   0.76027   0.00000
O          O       0.55685   0.18721   0.99568   0.00000
O          O       0.94315   0.31279   0.50432   0.00000
Cu         Cu      0.53257   0.25000   0.75000   0.00000
Cu         Cu      0.96743   0.25000   0.75000   0.00000
Cu         Cu      0.75000   0.03257   0.96743   0.00000
Cu         Cu      0.75000   0.46743   0.53257   0.00000
Cu         Cu      0.75000   0.03257   0.75000   0.00000
Cu         Cu      0.75000   0.46743   0.75000   0.00000
Cu         Cu      0.75000   0.25000   0.53257   0.00000
Cu         Cu      0.75000   0.25000   0.96743   0.00000
Cu         Cu      0.53257   0.25000   0.96743   0.00000
Cu         Cu      0.96743   0.25000   0.53257   0.00000
Cu         Cu      0.53257   0.46743   0.75000   0.00000
Cu         Cu      0.96743   0.03257   0.75000   0.00000
C          C       0.10026   0.60026   0.76427   0.00000
C          C       0.39990   0.89990   0.73523   0.00000
C          C       0.03463   0.76477   0.60010   0.00000
C          C       0.46497   0.73523   0.89990   0.00000
C          C       0.26477   0.53503   0.60010   0.00000
C          C       0.23523   0.96497   0.89990   0.00000
C          C       0.10010   0.60010   0.53503   0.00000
C          C       0.39990   0.89990   0.96497   0.00000
C          C       0.26477   0.60010   0.60010   0.00000
C          C       0.23523   0.89990   0.89990   0.00000
C          C       0.10010   0.76477   0.60010   0.00000
C          C       0.39990   0.73523   0.89990   0.00000
C          C       0.03503   0.60010   0.60010   0.00000
C          C       0.46497   0.89990   0.89990   0.00000
C          C       0.26477   0.60010   0.53504   0.00000
C          C       0.23523   0.89990   0.96496   0.00000
C          C       0.10010   0.53504   0.76477   0.00000
C          C       0.39990   0.96496   0.73523   0.00000
C          C       0.03503   0.60010   0.76477   0.00000
C          C       0.46497   0.89990   0.73523   0.00000
C          C       0.10010   0.76477   0.53504   0.00000
C          C       0.39990   0.73523   0.96496   0.00000
C          C       0.10010   0.53504   0.60010   0.00000
C          C       0.39990   0.96496   0.89990   0.00000
C          C       0.03462   0.66887   0.76190   0.00000
C          C       0.46538   0.83113   0.73810   0.00000
C          C       0.03461   0.76190   0.66887   0.00000
C          C       0.46539   0.73810   0.83113   0.00000
C          C       0.26190   0.53462   0.53462   0.00000
C          C       0.23810   0.96538   0.96538   0.00000
C          C       0.16887   0.53462   0.53462   0.00000
C          C       0.33113   0.96538   0.96538   0.00000
C          C       0.26190   0.53462   0.66887   0.00000
C          C       0.23810   0.96538   0.83113   0.00000
C          C       0.16887   0.76190   0.53462   0.00000
C          C       0.33113   0.73810   0.96538   0.00000
C          C       0.03461   0.66887   0.53461   0.00000
C          C       0.46538   0.83113   0.96539   0.00000
C          C       0.26190   0.66887   0.53462   0.00000
C          C       0.23810   0.83113   0.96538   0.00000
C          C       0.16887   0.53462   0.76190   0.00000
C          C       0.33113   0.96538   0.73810   0.00000
C          C       0.03461   0.53462   0.76190   0.00000
C          C       0.46538   0.96538   0.73810   0.00000
C          C       0.03461   0.76190   0.53462   0.00000
C          C       0.46539   0.73810   0.96538   0.00000
C          C       0.03461   0.53462   0.66887   0.00000
C          C       0.46539   0.96538   0.83113   0.00000
C          C       0.05677   0.62173   0.76474   0.00000
C          C       0.44323   0.87827   0.73526   0.00000
C          C       0.05677   0.76474   0.62173   0.00000
C          C       0.44323   0.73526   0.87827   0.00000
C          C       0.26474   0.55677   0.55677   0.00000
C          C       0.23526   0.94323   0.94323   0.00000
C          C       0.12172   0.55677   0.55677   0.00000
C          C       0.37828   0.94323   0.94323   0.00000
C          C       0.26474   0.55677   0.62172   0.00000
C          C       0.23526   0.94323   0.87828   0.00000
C          C       0.12172   0.76474   0.55677   0.00000
C          C       0.37828   0.73526   0.94323   0.00000
C          C       0.05677   0.62172   0.55677   0.00000
C          C       0.44323   0.87828   0.94323   0.00000
C          C       0.26474   0.62172   0.55677   0.00000
C          C       0.23526   0.87828   0.94323   0.00000
C          C       0.12172   0.55677   0.76474   0.00000
C          C       0.37828   0.94323   0.73526   0.00000
C          C       0.05677   0.55677   0.76474   0.00000
C          C       0.44323   0.94323   0.73526   0.00000
C          C       0.05677   0.76474   0.55677   0.00000
C          C       0.44323   0.73526   0.94323   0.00000
C          C       0.05677   0.55677   0.62172   0.00000
C          C       0.44323   0.94323   0.87828   0.00000
H          H       0.11733   0.61733   0.76396   0.00000
H          H       0.38267   0.88267   0.73604   0.00000
H          H       0.00138   0.76396   0.61733   0.00000
H          H       0.49862   0.73604   0.88267   0.00000
H          H       0.26396   0.50138   0.61733   0.00000
H          H       0.23604   0.99862   0.88267   0.00000
H          H       0.11733   0.61733   0.50138   0.00000
H          H       0.38267   0.88267   0.99862   0.00000
H          H       0.26396   0.61733   0.61733   0.00000
H          H       0.23604   0.88267   0.88267   0.00000
H          H       0.11733   0.76396   0.61733   0.00000
H          H       0.38267   0.73604   0.88267   0.00000
H          H       0.00138   0.61733   0.61733   0.00000
H          H       0.49862   0.88267   0.88267   0.00000
H          H       0.26396   0.61733   0.50138   0.00000
H          H       0.23604   0.88267   0.99862   0.00000
H          H       0.11733   0.50138   0.76396   0.00000
H          H       0.38267   0.99861   0.73604   0.00000
H          H       0.00138   0.61733   0.76396   0.00000
H          H       0.49862   0.88267   0.73604   0.00000
H          H       0.11733   0.76396   0.50138   0.00000
H          H       0.38267   0.73604   0.99862   0.00000
H          H       0.11733   0.50138   0.61733   0.00000
H          H       0.38267   0.99862   0.88267   0.00000
O          O       0.05685   0.68722   0.76026   0.00000
O          O       0.44315   0.81278   0.73974   0.00000
O          O       0.00432   0.73974   0.81278   0.00000
O          O       0.49567   0.76026   0.68722   0.00000
O          O       0.23933   0.50433   0.94315   0.00000
O          O       0.26027   0.99568   0.55685   0.00000
O          O       0.18721   0.55685   0.99567   0.00000
O          O       0.31279   0.94315   0.50433   0.00000
O          O       0.26026   0.55685   0.68721   0.00000
O          O       0.23974   0.94315   0.81279   0.00000
O          O       0.18721   0.76026   0.55685   0.00000
O          O       0.31279   0.73974   0.94315   0.00000
O          O       0.49568   0.68721   0.55685   0.00000
O          O       0.00432   0.81279   0.94315   0.00000
O          O       0.23973   0.81279   0.50432   0.00000
O          O       0.26027   0.68721   0.99568   0.00000
O          O       0.31279   0.50432   0.73974   0.00000
O          O       0.18721   0.99568   0.76026   0.00000
O          O       0.00432   0.94315   0.73974   0.00000
O          O       0.49568   0.55685   0.76026   0.00000
O          O       0.44315   0.73974   0.50432   0.00000
O          O       0.05685   0.76026   0.99568   0.00000
O          O       0.05685   0.99568   0.68721   0.00000
O          O       0.44315   0.50432   0.81279   0.00000
O          O       0.05684   0.76026   0.68722   0.00000
O          O       0.44316   0.73974   0.81278   0.00000
O          O       0.00432   0.81278   0.73974   0.00000
O          O       0.49568   0.68722   0.76026   0.00000
O          O       0.23974   0.94315   0.50432   0.00000
O          O       0.26026   0.55685   0.99568   0.00000
O          O       0.18721   0.99568   0.55685   0.00000
O          O       0.31279   0.50432   0.94315   0.00000
O          O       0.26026   0.68721   0.55685   0.00000
O          O       0.23974   0.81279   0.94315   0.00000
O          O       0.18721   0.55685   0.76026   0.00000
O          O       0.31279   0.94315   0.73974   0.00000
O          O       0.49568   0.55685   0.68721   0.00000
O          O       0.00432   0.94315   0.81279   0.00000
O          O       0.23973   0.50432   0.81279   0.00000
O          O       0.26026   0.99568   0.68721   0.00000
O          O       0.31279   0.73973   0.50432   0.00000
O          O       0.18721   0.76027   0.99568   0.00000
O          O       0.00432   0.73974   0.94315   0.00000
O          O       0.49568   0.76026   0.55685   0.00000
O          O       0.44315   0.50432   0.73973   0.00000
O          O       0.05685   0.99568   0.76027   0.00000
O          O       0.05685   0.68721   0.99568   0.00000
O          O       0.44315   0.81279   0.50432   0.00000
Cu         Cu      0.03257   0.75000   0.75000   0.00000
Cu         Cu      0.46743   0.75000   0.75000   0.00000
Cu         Cu      0.25000   0.53257   0.96743   0.00000
Cu         Cu      0.25000   0.96743   0.53257   0.00000
Cu         Cu      0.25000   0.53257   0.75000   0.00000
Cu         Cu      0.25000   0.96743   0.75000   0.00000
Cu         Cu      0.25000   0.75000   0.53257   0.00000
Cu         Cu      0.25000   0.75000   0.96743   0.00000
Cu         Cu      0.03257   0.75000   0.96743   0.00000
Cu         Cu      0.46743   0.75000   0.53257   0.00000
Cu         Cu      0.03257   0.96743   0.75000   0.00000
Cu         Cu      0.46743   0.53257   0.75000   0.00000
C          C       0.60026   0.60026   0.76427   0.00000
C          C       0.89990   0.89990   0.73523   0.00000
C          C       0.53463   0.76477   0.60010   0.00000
C          C       0.96497   0.73523   0.89990   0.00000
C          C       0.76477   0.53503   0.60010   0.00000
C          C       0.73523   0.96497   0.89990   0.00000
C          C       0.60010   0.60010   0.53503   0.00000
C          C       0.89990   0.89990   0.96497   0.00000
C          C       0.76477   0.60010   0.60010   0.00000
C          C       0.73523   0.89990   0.89990   0.00000
C          C       0.60010   0.76477   0.60010   0.00000
C          C       0.89990   0.73523   0.89990   0.00000
C          C       0.53503   0.60010   0.60010   0.00000
C          C       0.96497   0.89990   0.89990   0.00000
C          C       0.76477   0.60010   0.53504   0.00000
C          C       0.73523   0.89990   0.96496   0.00000
C          C       0.60010   0.53504   0.76477   0.00000
C          C       0.89990   0.96496   0.73523   0.00000
C          C       0.53503   0.60010   0.76477   0.00000
C          C       0.96497   0.89990   0.73523   0.00000
C          C       0.60010   0.76477   0.53504   0.00000
C          C       0.89990   0.73523   0.96496   0.00000
C          C       0.60010   0.53504   0.60010   0.00000
C          C       0.89990   0.96496   0.89990   0.00000
C          C       0.53462   0.66887   0.76190   0.00000
C          C       0.96538   0.83113   0.73810   0.00000
C          C       0.53461   0.76190   0.66887   0.00000
C          C       0.96539   0.73810   0.83113   0.00000
C          C       0.76190   0.53462   0.53462   0.00000
C          C       0.73810   0.96538   0.96538   0.00000
C          C       0.66887   0.53462   0.53462   0.00000
C          C       0.83113   0.96538   0.96538   0.00000
C          C       0.76190   0.53462   0.66887   0.00000
C          C       0.73810   0.96538   0.83113   0.00000
C          C       0.66887   0.76190   0.53462   0.00000
C          C       0.83113   0.73810   0.96538   0.00000
C          C       0.53461   0.66887   0.53461   0.00000
C          C       0.96538   0.83113   0.96539   0.00000
C          C       0.76190   0.66887   0.53462   0.00000
C          C       0.73810   0.83113   0.96538   0.00000
C          C       0.66887   0.53462   0.76190   0.00000
C          C       0.83113   0.96538   0.73810   0.00000
C          C       0.53461   0.53462   0.76190   0.00000
C          C       0.96538   0.96538   0.73810   0.00000
C          C       0.53461   0.76190   0.53462   0.00000
C          C       0.96539   0.73810   0.96538   0.00000
C          C       0.53461   0.53462   0.66887   0.00000
C          C       0.96539   0.96538   0.83113   0.00000
C          C       0.55677   0.62173   0.76474   0.00000
C          C       0.94323   0.87827   0.73526   0.00000
C          C       0.55677   0.76474   0.62173   0.00000
C          C       0.94323   0.73526   0.87827   0.00000
C          C       0.76474   0.55677   0.55677   0.00000
C          C       0.73526   0.94323   0.94323   0.00000
C          C       0.62172   0.55677   0.55677   0.00000
C          C       0.87828   0.94323   0.94323   0.00000
C          C       0.76474   0.55677   0.62172   0.00000
C          C       0.73526   0.94323   0.87828   0.00000
C          C       0.62172   0.76474   0.55677   0.00000
C          C       0.87828   0.73526   0.94323   0.00000
C          C       0.55677   0.62172   0.55677   0.00000
C          C       0.94323   0.87828   0.94323   0.00000
C          C       0.76474   0.62172   0.55677   0.00000
C          C       0.73526   0.87828   0.94323   0.00000
C          C       0.62172   0.55677   0.76474   0.00000
C          C       0.87828   0.94323   0.73526   0.00000
C          C       0.55677   0.55677   0.76474   0.00000
C          C       0.94323   0.94323   0.73526   0.00000
C          C       0.55677   0.76474   0.55677   0.00000
C          C       0.94323   0.73526   0.94323   0.00000
C          C       0.55677   0.55677   0.62172   0.00000
C          C       0.94323   0.94323   0.87828   0.00000
H          H       0.61733   0.61733   0.76396   0.00000
H          H       0.88267   0.88267   0.73604   0.00000
H          H       0.50138   0.76396   0.61733   0.00000
H          H       0.99862   0.73604   0.88267   0.00000
H          H       0.76396   0.50138   0.61733   0.00000
H          H       0.73604   0.99862   0.88267   0.00000
H          H       0.61733   0.61733   0.50138   0.00000
H          H       0.88267   0.88267   0.99862   0.00000
H          H       0.76396   0.61733   0.61733   0.00000
H          H       0.73604   0.88267   0.88267   0.00000
H          H       0.61733   0.76396   0.61733   0.00000
H          H       0.88267   0.73604   0.88267   0.00000
H          H       0.50138   0.61733   0.61733   0.00000
H          H       0.99862   0.88267   0.88267   0.00000
H          H       0.76396   0.61733   0.50138   0.00000
H          H       0.73604   0.88267   0.99862   0.00000
H          H       0.61733   0.50138   0.76396   0.00000
H          H       0.88267   0.99861   0.73604   0.00000
H          H       0.50138   0.61733   0.76396   0.00000
H          H       0.99862   0.88267   0.73604   0.00000
H          H       0.61733   0.76396   0.50138   0.00000
H          H       0.88267   0.73604   0.99862   0.00000
H          H       0.61733   0.50138   0.61733   0.00000
H          H       0.88267   0.99862   0.88267   0.00000
O          O       0.55685   0.68722   0.76026   0.00000
O          O       0.94315   0.81278   0.73974   0.00000
O          O       0.50432   0.73974   0.81278   0.00000
O          O       0.99567   0.76026   0.68722   0.00000
O          O       0.73933   0.50433   0.94315   0.00000
O          O       0.76027   0.99568   0.55685   0.00000
O          O       0.68721   0.55685   0.99567   0.00000
O          O       0.81279   0.94315   0.50433   0.00000
O          O       0.76026   0.55685   0.68721   0.00000
O          O       0.73974   0.94315   0.81279   0.00000
O          O       0.68721   0.76026   0.55685   0.00000
O          O       0.81279   0.73974   0.94315   0.00000
O          O       0.99568   0.68721   0.55685   0.00000
O          O       0.50432   0.81279   0.94315   0.00000
O          O       0.73973   0.81279   0.50432   0.00000
O          O       0.76027   0.68721   0.99568   0.00000
O          O       0.81279   0.50432   0.73974   0.00000
O          O       0.68721   0.99568   0.76026   0.00000
O          O       0.50432   0.94315   0.73974   0.00000
O          O       0.99568   0.55685   0.76026   0.00000
O          O       0.94315   0.73974   0.50432   0.00000
O          O       0.55685   0.76026   0.99568   0.00000
O          O       0.55685   0.99568   0.68721   0.00000
O          O       0.94315   0.50432   0.81279   0.00000
O          O       0.55684   0.76026   0.68722   0.00000
O          O       0.94315   0.73974   0.81278   0.00000
O          O       0.50432   0.81278   0.73974   0.00000
O          O       0.99568   0.68722   0.76026   0.00000
O          O       0.73974   0.94315   0.50432   0.00000
O          O       0.76026   0.55685   0.99568   0.00000
O          O       0.68721   0.99568   0.55685   0.00000
O          O       0.81279   0.50432   0.94315   0.00000
O          O       0.76026   0.68721   0.55685   0.00000
O          O       0.73974   0.81279   0.94315   0.00000
O          O       0.68721   0.55685   0.76026   0.00000
O          O       0.81279   0.94315   0.73974   0.00000
O          O       0.99568   0.55685   0.68721   0.00000
O          O       0.50432   0.94315   0.81279   0.00000
O          O       0.73973   0.50432   0.81279   0.00000
O          O       0.76026   0.99568   0.68721   0.00000
O          O       0.81279   0.73973   0.50432   0.00000
O          O       0.68721   0.76027   0.99568   0.00000
O          O       0.50432   0.73974   0.94315   0.00000
O          O       0.99568   0.76026   0.55685   0.00000
O          O       0.94315   0.50432   0.73973   0.00000
O          O       0.55685   0.99568   0.76027   0.00000
O          O       0.55685   0.68721   0.99568   0.00000
O          O       0.94315   0.81279   0.50432   0.00000
Cu         Cu      0.53257   0.75000   0.75000   0.00000
Cu         Cu      0.96743   0.75000   0.75000   0.00000
Cu         Cu      0.75000   0.53257   0.96743   0.00000
Cu         Cu      0.75000   0.96743   0.53257   0.00000
Cu         Cu      0.75000   0.53257   0.75000   0.00000
Cu         Cu      0.75000   0.96743   0.75000   0.00000
Cu         Cu      0.75000   0.75000   0.53257   0.00000
Cu         Cu      0.75000   0.75000   0.96743   0.00000
Cu         Cu      0.53257   0.75000   0.96743   0.00000
Cu         Cu      0.96743   0.75000   0.53257   0.00000
Cu         Cu      0.53257   0.96743   0.75000   0.00000
Cu         Cu      0.96743   0.53257   0.75000   0.00000
