data_crystal
 
_cell_length_a    33.591
_cell_length_b    33.551
_cell_length_c    23.109
_cell_angle_alpha 90.000
_cell_angle_beta  90.000
_cell_angle_gamma 90.000
 
_symmetry_space_group_name_Hall 'P 1'
_symmetry_space_group_name_H-M  'P 1'
 
loop_
_symmetry_equiv_pos_as_xyz
 'x,y,z' 
 
loop_
_atom_site_label
_atom_site_type_symbol
_atom_site_fract_x
_atom_site_fract_y
_atom_site_fract_z
_atom_site_charge
Cu         Cu        0.228     0.227     0.500   0.00000
Cu         Cu        0.176     0.175     0.500   0.00000
Cu         Cu        0.341     0.341     0.176   0.00000
Cu         Cu        0.378     0.378     0.252   0.00000
Cu         Cu        0.499     0.257     0.499   0.00000
Cu         Cu        0.499     0.183     0.499   0.00000
O          O         0.205     0.042     0.297   0.00000
O          O         0.252     0.042     0.225   0.00000
O          O         0.256     0.196     0.439   0.00000
O          O         0.207     0.148     0.439   0.00000
O          O         0.350     0.291     0.220   0.00000
O          O         0.384     0.325     0.290   0.00000
O          O         0.456     0.186     0.439   0.00000
O          O         0.458     0.254     0.436   0.00000
C          C         0.258     0.089     0.301   0.00000
C          C         0.240     0.109     0.348   0.00000
H          H         0.211     0.099     0.364   0.00000
C          C         0.259     0.142     0.372   0.00000
C          C         0.297     0.154     0.352   0.00000
H          H         0.311     0.180     0.371   0.00000
C          C         0.315     0.133     0.306   0.00000
C          C         0.295     0.101     0.281   0.00000
H          H         0.308     0.085     0.244   0.00000
C          C         0.379     0.255     0.297   0.00000
C          C         0.405     0.256     0.344   0.00000
H          H         0.418     0.284     0.359   0.00000
C          C         0.416     0.220     0.371   0.00000
C          C         0.400     0.184     0.351   0.00000
H          H         0.409     0.156     0.372   0.00000
C          C         0.373     0.183     0.304   0.00000
C          C         0.363     0.219     0.278   0.00000
H          H         0.343     0.220     0.241   0.00000
C          C         0.356     0.144     0.283   0.00000
H          H         0.377     0.120     0.293   0.00000
H          H         0.354     0.145     0.235   0.00000
C          C         0.237     0.055     0.272   0.00000
C          C         0.239     0.164     0.421   0.00000
C          C         0.370     0.294     0.267   0.00000
C          C         0.446     0.220     0.420   0.00000
O          O         0.146     0.958     0.213   0.00000
O          O         0.194     0.957     0.142   0.00000
C          C         0.162     0.944     0.167   0.00000
C          C         0.141     0.910     0.139   0.00000
C          C         0.109     0.891     0.166   0.00000
H          H         0.098     0.902     0.207   0.00000
C          C         0.155     0.895     0.086   0.00000
H          H         0.181     0.910     0.066   0.00000
C          C         0.137     0.862     0.059   0.00000
C          C         0.152     0.848     0.001   0.00000
H          H         0.148     0.815     0.001   0.00000
O          O         0.394     0.334     0.139   0.00000
O          O         0.428     0.366     0.211   0.00000
C          C         0.426     0.346     0.164   0.00000
C          C         0.465     0.334     0.137   0.00000
C          C         0.501     0.345     0.163   0.00000
H          H         0.501     0.361     0.204   0.00000
C          C         0.465     0.313     0.085   0.00000
H          H         0.437     0.306     0.065   0.00000
C          C         0.501     0.302     0.058   0.00000
C          C         0.500     0.282     0.000   0.00000
H          H         0.474     0.262     0.000   0.00000
Cu         Cu        0.827     0.000     0.743   0.00000
Cu         Cu        0.173     0.000     0.743   0.00000
Cu         Cu        0.000     0.827     0.744   0.00000
Cu         Cu       -0.000     0.173     0.741   0.00000
Cu         Cu        0.173     0.000     0.258   0.00000
Cu         Cu        0.827     0.000     0.258   0.00000
Cu         Cu       -0.000     0.827     0.258   0.00000
Cu         Cu        0.000     0.173     0.259   0.00000
Cu         Cu        0.775     0.000     0.820   0.00000
Cu         Cu        0.224     0.000     0.820   0.00000
Cu         Cu       -0.000     0.776     0.821   0.00000
Cu         Cu        0.000     0.224     0.819   0.00000
Cu         Cu        0.224    -0.000     0.180   0.00000
Cu         Cu        0.776     0.000     0.180   0.00000
Cu         Cu       -0.000     0.776     0.181   0.00000
Cu         Cu        0.000     0.225     0.181   0.00000
Cu         Cu        0.773     0.773     0.501   0.00000
Cu         Cu        0.773     0.228     0.500   0.00000
Cu         Cu        0.228     0.772     0.500   0.00000
Cu         Cu        0.825     0.825     0.500   0.00000
Cu         Cu        0.825     0.175     0.500   0.00000
Cu         Cu        0.175     0.825     0.500   0.00000
Cu         Cu        0.661     0.659     0.178   0.00000
Cu         Cu        0.660     0.339     0.178   0.00000
Cu         Cu        0.341     0.660     0.177   0.00000
Cu         Cu        0.660     0.339     0.822   0.00000
Cu         Cu        0.341     0.660     0.822   0.00000
Cu         Cu        0.341     0.340     0.822   0.00000
Cu         Cu        0.660     0.659     0.822   0.00000
Cu         Cu        0.624     0.622     0.254   0.00000
Cu         Cu        0.623     0.377     0.254   0.00000
Cu         Cu        0.377     0.623     0.253   0.00000
Cu         Cu        0.623     0.377     0.745   0.00000
Cu         Cu        0.378     0.624     0.746   0.00000
Cu         Cu        0.378     0.377     0.746   0.00000
Cu         Cu        0.624     0.623     0.745   0.00000
Cu         Cu        0.500     0.743     0.500   0.00000
Cu         Cu        0.743     0.500     0.500   0.00000
Cu         Cu        0.257     0.500     0.500   0.00000
Cu         Cu        0.500     0.817     0.500   0.00000
Cu         Cu        0.817     0.500     0.500   0.00000
Cu         Cu        0.183     0.500     0.500   0.00000
O          O         0.794     0.959     0.297   0.00000
O          O         0.959     0.206     0.298   0.00000
O          O         0.042     0.795     0.297   0.00000
O          O         0.795     0.044     0.706   0.00000
O          O         0.204     0.958     0.704   0.00000
O          O         0.043     0.204     0.703   0.00000
O          O         0.958     0.796     0.705   0.00000
O          O         0.794     0.959     0.702   0.00000
O          O         0.205     0.042     0.703   0.00000
O          O         0.042     0.795     0.704   0.00000
O          O         0.958     0.206     0.702   0.00000
O          O         0.205     0.958     0.297   0.00000
O          O         0.796     0.043     0.296   0.00000
O          O         0.958     0.796     0.297   0.00000
O          O         0.044     0.205     0.295   0.00000
O          O         0.748     0.958     0.225   0.00000
O          O         0.958     0.252     0.226   0.00000
O          O         0.042     0.748     0.226   0.00000
O          O         0.746     0.042     0.775   0.00000
O          O         0.252     0.958     0.775   0.00000
O          O         0.042     0.252     0.773   0.00000
O          O         0.958     0.748     0.775   0.00000
O          O         0.748     0.958     0.775   0.00000
O          O         0.252     0.042     0.775   0.00000
O          O         0.042     0.748     0.775   0.00000
O          O         0.958     0.252     0.775   0.00000
O          O         0.252     0.958     0.225   0.00000
O          O         0.748     0.042     0.226   0.00000
O          O         0.958     0.748     0.226   0.00000
O          O         0.042     0.254     0.225   0.00000
O          O         0.746     0.804     0.439   0.00000
O          O         0.805     0.256     0.439   0.00000
O          O         0.194     0.744     0.441   0.00000
O          O         0.746     0.196     0.561   0.00000
O          O         0.256     0.806     0.559   0.00000
O          O         0.196     0.254     0.561   0.00000
O          O         0.804     0.746     0.564   0.00000
O          O         0.744     0.806     0.560   0.00000
O          O         0.256     0.195     0.561   0.00000
O          O         0.196     0.746     0.563   0.00000
O          O         0.805     0.256     0.561   0.00000
O          O         0.254     0.804     0.437   0.00000
O          O         0.746     0.196     0.439   0.00000
O          O         0.806     0.746     0.441   0.00000
O          O         0.196     0.254     0.439   0.00000
O          O         0.794     0.853     0.440   0.00000
O          O         0.852     0.206     0.439   0.00000
O          O         0.148     0.794     0.439   0.00000
O          O         0.794     0.148     0.561   0.00000
O          O         0.206     0.852     0.561   0.00000
O          O         0.148     0.206     0.560   0.00000
O          O         0.852     0.794     0.561   0.00000
O          O         0.794     0.852     0.561   0.00000
O          O         0.206     0.148     0.561   0.00000
O          O         0.148     0.794     0.561   0.00000
O          O         0.852     0.206     0.561   0.00000
O          O         0.206     0.852     0.439   0.00000
O          O         0.794     0.148     0.440   0.00000
O          O         0.852     0.796     0.439   0.00000
O          O         0.148     0.206     0.439   0.00000
O          O         0.650     0.709     0.222   0.00000
O          O         0.710     0.350     0.222   0.00000
O          O         0.290     0.651     0.222   0.00000
O          O         0.650     0.290     0.775   0.00000
O          O         0.350     0.710     0.777   0.00000
O          O         0.292     0.350     0.777   0.00000
O          O         0.710     0.650     0.777   0.00000
O          O         0.650     0.710     0.778   0.00000
O          O         0.350     0.290     0.778   0.00000
O          O         0.291     0.650     0.778   0.00000
O          O         0.710     0.350     0.777   0.00000
O          O         0.350     0.710     0.222   0.00000
O          O         0.652     0.290     0.224   0.00000
O          O         0.710     0.651     0.223   0.00000
O          O         0.291     0.350     0.222   0.00000
O          O         0.618     0.674     0.293   0.00000
O          O         0.676     0.384     0.292   0.00000
O          O         0.325     0.615     0.290   0.00000
O          O         0.615     0.325     0.707   0.00000
O          O         0.386     0.676     0.708   0.00000
O          O         0.326     0.384     0.708   0.00000
O          O         0.676     0.616     0.708   0.00000
O          O         0.617     0.676     0.708   0.00000
O          O         0.385     0.324     0.709   0.00000
O          O         0.326     0.618     0.707   0.00000
O          O         0.675     0.383     0.707   0.00000
O          O         0.384     0.675     0.292   0.00000
O          O         0.616     0.324     0.292   0.00000
O          O         0.676     0.614     0.291   0.00000
O          O         0.326     0.386     0.289   0.00000
O          O         0.542     0.814     0.439   0.00000
O          O         0.814     0.458     0.439   0.00000
O          O         0.186     0.542     0.439   0.00000
O          O         0.542     0.186     0.558   0.00000
O          O         0.458     0.814     0.560   0.00000
O          O         0.186     0.458     0.561   0.00000
O          O         0.814     0.542     0.561   0.00000
O          O         0.542     0.814     0.561   0.00000
O          O         0.458     0.186     0.561   0.00000
O          O         0.186     0.542     0.561   0.00000
O          O         0.814     0.458     0.561   0.00000
O          O         0.458     0.814     0.439   0.00000
O          O         0.540     0.186     0.437   0.00000
O          O         0.814     0.542     0.440   0.00000
O          O         0.186     0.458     0.439   0.00000
O          O         0.542     0.746     0.439   0.00000
O          O         0.746     0.458     0.439   0.00000
O          O         0.254     0.542     0.439   0.00000
O          O         0.540     0.254     0.561   0.00000
O          O         0.458     0.746     0.561   0.00000
O          O         0.254     0.458     0.561   0.00000
O          O         0.746     0.542     0.561   0.00000
O          O         0.542     0.746     0.561   0.00000
O          O         0.456     0.254     0.558   0.00000
O          O         0.254     0.542     0.561   0.00000
O          O         0.746     0.458     0.561   0.00000
O          O         0.458     0.746     0.439   0.00000
O          O         0.542     0.254     0.439   0.00000
O          O         0.746     0.542     0.439   0.00000
O          O         0.254     0.458     0.440   0.00000
C          C         0.742     0.911     0.301   0.00000
C          C         0.912     0.258     0.303   0.00000
C          C         0.088     0.742     0.302   0.00000
C          C         0.742     0.089     0.699   0.00000
C          C         0.258     0.912     0.698   0.00000
C          C         0.090     0.257     0.699   0.00000
C          C         0.911     0.743     0.699   0.00000
C          C         0.742     0.912     0.698   0.00000
C          C         0.258     0.088     0.698   0.00000
C          C         0.089     0.742     0.699   0.00000
C          C         0.912     0.259     0.698   0.00000
C          C         0.257     0.911     0.301   0.00000
C          C         0.743     0.089     0.301   0.00000
C          C         0.912     0.743     0.303   0.00000
C          C         0.090     0.258     0.301   0.00000
C          C         0.760     0.892     0.348   0.00000
C          C         0.892     0.240     0.349   0.00000
C          C         0.108     0.760     0.349   0.00000
C          C         0.761     0.109     0.653   0.00000
C          C         0.240     0.892     0.651   0.00000
C          C         0.110     0.239     0.652   0.00000
C          C         0.891     0.761     0.653   0.00000
C          C         0.760     0.892     0.651   0.00000
C          C         0.240     0.108     0.652   0.00000
C          C         0.109     0.761     0.653   0.00000
C          C         0.892     0.240     0.651   0.00000
C          C         0.239     0.891     0.347   0.00000
C          C         0.761     0.109     0.347   0.00000
C          C         0.892     0.761     0.349   0.00000
C          C         0.109     0.240     0.347   0.00000
H          H         0.789     0.901     0.363   0.00000
H          H         0.901     0.211     0.365   0.00000
H          H         0.099     0.789     0.365   0.00000
H          H         0.790     0.100     0.639   0.00000
H          H         0.211     0.901     0.636   0.00000
H          H         0.100     0.210     0.637   0.00000
H          H         0.901     0.790     0.638   0.00000
H          H         0.789     0.902     0.636   0.00000
H          H         0.211     0.099     0.636   0.00000
H          H         0.099     0.790     0.637   0.00000
H          H         0.902     0.211     0.636   0.00000
H          H         0.210     0.900     0.363   0.00000
H          H         0.790     0.100     0.362   0.00000
H          H         0.901     0.790     0.364   0.00000
H          H         0.100     0.211     0.362   0.00000
C          C         0.741     0.859     0.373   0.00000
C          C         0.859     0.259     0.374   0.00000
C          C         0.141     0.741     0.374   0.00000
C          C         0.741     0.142     0.627   0.00000
C          C         0.259     0.860     0.626   0.00000
C          C         0.142     0.258     0.627   0.00000
C          C         0.859     0.742     0.628   0.00000
C          C         0.741     0.860     0.626   0.00000
C          C         0.259     0.141     0.626   0.00000
C          C         0.142     0.742     0.628   0.00000
C          C         0.859     0.259     0.626   0.00000
C          C         0.258     0.858     0.372   0.00000
C          C         0.742     0.142     0.373   0.00000
C          C         0.859     0.742     0.375   0.00000
C          C         0.142     0.259     0.373   0.00000
C          C         0.704     0.846     0.353   0.00000
C          C         0.847     0.297     0.353   0.00000
C          C         0.153     0.703     0.354   0.00000
C          C         0.703     0.154     0.646   0.00000
C          C         0.297     0.848     0.645   0.00000
C          C         0.155     0.296     0.647   0.00000
C          C         0.847     0.704     0.648   0.00000
C          C         0.703     0.847     0.646   0.00000
C          C         0.297     0.153     0.646   0.00000
C          C         0.154     0.704     0.648   0.00000
C          C         0.847     0.297     0.647   0.00000
C          C         0.296     0.846     0.352   0.00000
C          C         0.704     0.154     0.353   0.00000
C          C         0.847     0.704     0.355   0.00000
C          C         0.154     0.296     0.353   0.00000
H          H         0.690     0.821     0.373   0.00000
H          H         0.821     0.311     0.373   0.00000
H          H         0.179     0.689     0.374   0.00000
H          H         0.689     0.179     0.625   0.00000
H          H         0.312     0.823     0.625   0.00000
H          H         0.180     0.310     0.627   0.00000
H          H         0.821     0.690     0.628   0.00000
H          H         0.689     0.822     0.626   0.00000
H          H         0.311     0.178     0.626   0.00000
H          H         0.180     0.690     0.628   0.00000
H          H         0.821     0.311     0.627   0.00000
H          H         0.310     0.820     0.372   0.00000
H          H         0.690     0.179     0.374   0.00000
H          H         0.822     0.690     0.376   0.00000
H          H         0.180     0.310     0.374   0.00000
C          C         0.685     0.866     0.307   0.00000
C          C         0.867     0.316     0.308   0.00000
C          C         0.133     0.685     0.308   0.00000
C          C         0.684     0.134     0.691   0.00000
C          C         0.315     0.868     0.691   0.00000
C          C         0.134     0.314     0.693   0.00000
C          C         0.867     0.685     0.693   0.00000
C          C         0.684     0.868     0.692   0.00000
C          C         0.316     0.132     0.692   0.00000
C          C         0.134     0.685     0.693   0.00000
C          C         0.867     0.316     0.692   0.00000
C          C         0.315     0.867     0.307   0.00000
C          C         0.685     0.133     0.308   0.00000
C          C         0.867     0.685     0.310   0.00000
C          C         0.134     0.315     0.308   0.00000
C          C         0.705     0.899     0.282   0.00000
C          C         0.900     0.296     0.282   0.00000
C          C         0.101     0.705     0.282   0.00000
C          C         0.704     0.102     0.718   0.00000
C          C         0.295     0.900     0.718   0.00000
C          C         0.102     0.294     0.718   0.00000
C          C         0.899     0.705     0.719   0.00000
C          C         0.704     0.900     0.718   0.00000
C          C         0.295     0.100     0.718   0.00000
C          C         0.101     0.705     0.719   0.00000
C          C         0.899     0.296     0.718   0.00000
C          C         0.295     0.899     0.282   0.00000
C          C         0.705     0.101     0.282   0.00000
C          C         0.899     0.705     0.283   0.00000
C          C         0.102     0.296     0.282   0.00000
H          H         0.691     0.915     0.245   0.00000
H          H         0.915     0.309     0.246   0.00000
H          H         0.085     0.692     0.246   0.00000
H          H         0.690     0.086     0.754   0.00000
H          H         0.308     0.915     0.754   0.00000
H          H         0.086     0.308     0.754   0.00000
H          H         0.915     0.691     0.755   0.00000
H          H         0.691     0.915     0.754   0.00000
H          H         0.309     0.085     0.754   0.00000
H          H         0.086     0.691     0.755   0.00000
H          H         0.915     0.309     0.754   0.00000
H          H         0.309     0.915     0.246   0.00000
H          H         0.692     0.085     0.246   0.00000
H          H         0.915     0.691     0.247   0.00000
H          H         0.087     0.310     0.246   0.00000
C          C         0.621     0.744     0.300   0.00000
C          C         0.745     0.379     0.300   0.00000
C          C         0.255     0.620     0.299   0.00000
C          C         0.620     0.255     0.698   0.00000
C          C         0.380     0.746     0.700   0.00000
C          C         0.256     0.379     0.700   0.00000
C          C         0.745     0.621     0.700   0.00000
C          C         0.621     0.745     0.701   0.00000
C          C         0.380     0.254     0.700   0.00000
C          C         0.256     0.621     0.700   0.00000
C          C         0.745     0.379     0.700   0.00000
C          C         0.379     0.745     0.300   0.00000
C          C         0.621     0.255     0.300   0.00000
C          C         0.746     0.620     0.300   0.00000
C          C         0.256     0.380     0.299   0.00000
C          C         0.594     0.744     0.347   0.00000
C          C         0.745     0.406     0.347   0.00000
C          C         0.255     0.594     0.346   0.00000
C          C         0.593     0.256     0.652   0.00000
C          C         0.406     0.745     0.653   0.00000
C          C         0.256     0.406     0.653   0.00000
C          C         0.745     0.594     0.653   0.00000
C          C         0.594     0.745     0.654   0.00000
C          C         0.406     0.255     0.653   0.00000
C          C         0.256     0.594     0.653   0.00000
C          C         0.745     0.406     0.653   0.00000
C          C         0.406     0.744     0.347   0.00000
C          C         0.594     0.255     0.347   0.00000
C          C         0.745     0.594     0.347   0.00000
C          C         0.257     0.406     0.346   0.00000
H          H         0.581     0.716     0.362   0.00000
H          H         0.717     0.418     0.361   0.00000
H          H         0.283     0.581     0.361   0.00000
H          H         0.580     0.284     0.637   0.00000
H          H         0.419     0.717     0.639   0.00000
H          H         0.284     0.419     0.638   0.00000
H          H         0.717     0.582     0.639   0.00000
H          H         0.582     0.717     0.639   0.00000
H          H         0.418     0.283     0.638   0.00000
H          H         0.284     0.582     0.638   0.00000
H          H         0.717     0.418     0.638   0.00000
H          H         0.418     0.716     0.362   0.00000
H          H         0.581     0.283     0.361   0.00000
H          H         0.717     0.581     0.361   0.00000
H          H         0.285     0.419     0.361   0.00000
C          C         0.583     0.780     0.373   0.00000
C          C         0.781     0.417     0.373   0.00000
C          C         0.220     0.583     0.373   0.00000
C          C         0.583     0.220     0.625   0.00000
C          C         0.417     0.781     0.626   0.00000
C          C         0.220     0.416     0.627   0.00000
C          C         0.781     0.584     0.627   0.00000
C          C         0.583     0.781     0.627   0.00000
C          C         0.416     0.219     0.626   0.00000
C          C         0.220     0.584     0.627   0.00000
C          C         0.780     0.416     0.627   0.00000
C          C         0.416     0.780     0.373   0.00000
C          C         0.583     0.219     0.373   0.00000
C          C         0.781     0.583     0.374   0.00000
C          C         0.221     0.417     0.373   0.00000
C          C         0.600     0.816     0.353   0.00000
C          C         0.817     0.400     0.353   0.00000
C          C         0.184     0.600     0.353   0.00000
C          C         0.599     0.184     0.644   0.00000
C          C         0.400     0.817     0.646   0.00000
C          C         0.184     0.400     0.647   0.00000
C          C         0.817     0.600     0.646   0.00000
C          C         0.600     0.817     0.647   0.00000
C          C         0.400     0.183     0.646   0.00000
C          C         0.184     0.600     0.647   0.00000
C          C         0.816     0.400     0.647   0.00000
C          C         0.400     0.816     0.353   0.00000
C          C         0.599     0.183     0.354   0.00000
C          C         0.817     0.600     0.355   0.00000
C          C         0.185     0.400     0.354   0.00000
H          H         0.591     0.844     0.374   0.00000
H          H         0.844     0.409     0.374   0.00000
H          H         0.156     0.591     0.374   0.00000
H          H         0.590     0.156     0.623   0.00000
H          H         0.409     0.844     0.625   0.00000
H          H         0.157     0.409     0.626   0.00000
H          H         0.844     0.591     0.625   0.00000
H          H         0.591     0.844     0.626   0.00000
H          H         0.409     0.156     0.625   0.00000
H          H         0.156     0.591     0.627   0.00000
H          H         0.844     0.409     0.626   0.00000
H          H         0.409     0.844     0.374   0.00000
H          H         0.590     0.156     0.375   0.00000
H          H         0.844     0.591     0.376   0.00000
H          H         0.157     0.409     0.376   0.00000
C          C         0.627     0.817     0.307   0.00000
C          C         0.818     0.374     0.307   0.00000
C          C         0.183     0.626     0.306   0.00000
C          C         0.626     0.183     0.691   0.00000
C          C         0.374     0.818     0.692   0.00000
C          C         0.184     0.373     0.693   0.00000
C          C         0.818     0.626     0.693   0.00000
C          C         0.626     0.818     0.693   0.00000
C          C         0.374     0.182     0.693   0.00000
C          C         0.184     0.627     0.694   0.00000
C          C         0.817     0.374     0.693   0.00000
C          C         0.373     0.817     0.307   0.00000
C          C         0.626     0.182     0.308   0.00000
C          C         0.818     0.627     0.308   0.00000
C          C         0.184     0.374     0.307   0.00000
C          C         0.637     0.780     0.280   0.00000
C          C         0.782     0.363     0.280   0.00000
C          C         0.219     0.636     0.280   0.00000
C          C         0.636     0.219     0.718   0.00000
C          C         0.363     0.782     0.719   0.00000
C          C         0.220     0.363     0.719   0.00000
C          C         0.782     0.637     0.720   0.00000
C          C         0.637     0.782     0.720   0.00000
C          C         0.364     0.218     0.720   0.00000
C          C         0.220     0.637     0.720   0.00000
C          C         0.781     0.363     0.720   0.00000
C          C         0.363     0.781     0.281   0.00000
C          C         0.637     0.219     0.281   0.00000
C          C         0.782     0.637     0.281   0.00000
C          C         0.220     0.364     0.280   0.00000
H          H         0.657     0.780     0.244   0.00000
H          H         0.781     0.343     0.243   0.00000
H          H         0.219     0.657     0.243   0.00000
H          H         0.656     0.219     0.754   0.00000
H          H         0.343     0.782     0.756   0.00000
H          H         0.221     0.342     0.756   0.00000
H          H         0.781     0.657     0.756   0.00000
H          H         0.657     0.781     0.757   0.00000
H          H         0.344     0.218     0.757   0.00000
H          H         0.220     0.657     0.757   0.00000
H          H         0.781     0.343     0.756   0.00000
H          H         0.343     0.780     0.244   0.00000
H          H         0.658     0.219     0.245   0.00000
H          H         0.781     0.657     0.244   0.00000
H          H         0.220     0.343     0.243   0.00000
C          C         0.644     0.855     0.285   0.00000
C          C         0.856     0.357     0.285   0.00000
C          C         0.144     0.644     0.285   0.00000
C          C         0.643     0.144     0.712   0.00000
C          C         0.357     0.857     0.714   0.00000
C          C         0.145     0.356     0.715   0.00000
C          C         0.857     0.643     0.715   0.00000
C          C         0.643     0.856     0.715   0.00000
C          C         0.357     0.143     0.714   0.00000
C          C         0.145     0.644     0.716   0.00000
C          C         0.856     0.357     0.715   0.00000
C          C         0.356     0.856     0.285   0.00000
C          C         0.644     0.144     0.286   0.00000
C          C         0.856     0.644     0.287   0.00000
C          C         0.145     0.357     0.286   0.00000
H          H         0.623     0.880     0.296   0.00000
H          H         0.881     0.377     0.295   0.00000
H          H         0.120     0.623     0.295   0.00000
H          H         0.623     0.120     0.700   0.00000
H          H         0.377     0.881     0.702   0.00000
H          H         0.121     0.376     0.704   0.00000
H          H         0.881     0.623     0.703   0.00000
H          H         0.623     0.881     0.704   0.00000
H          H         0.377     0.119     0.703   0.00000
H          H         0.120     0.623     0.705   0.00000
H          H         0.880     0.377     0.705   0.00000
H          H         0.376     0.880     0.296   0.00000
H          H         0.624     0.119     0.298   0.00000
H          H         0.881     0.623     0.298   0.00000
H          H         0.121     0.377     0.298   0.00000
H          H         0.645     0.854     0.237   0.00000
H          H         0.855     0.355     0.237   0.00000
H          H         0.145     0.645     0.237   0.00000
H          H         0.643     0.144     0.760   0.00000
H          H         0.356     0.856     0.761   0.00000
H          H         0.146     0.355     0.762   0.00000
H          H         0.856     0.644     0.762   0.00000
H          H         0.645     0.856     0.762   0.00000
H          H         0.356     0.144     0.762   0.00000
H          H         0.146     0.645     0.763   0.00000
H          H         0.855     0.355     0.763   0.00000
H          H         0.355     0.855     0.238   0.00000
H          H         0.645     0.144     0.239   0.00000
H          H         0.856     0.645     0.239   0.00000
H          H         0.146     0.356     0.239   0.00000
C          C         0.763     0.946     0.272   0.00000
C          C         0.946     0.237     0.273   0.00000
C          C         0.055     0.763     0.273   0.00000
C          C         0.763     0.056     0.729   0.00000
C          C         0.236     0.945     0.728   0.00000
C          C         0.055     0.236     0.727   0.00000
C          C         0.945     0.764     0.729   0.00000
C          C         0.763     0.946     0.727   0.00000
C          C         0.237     0.055     0.728   0.00000
C          C         0.055     0.763     0.728   0.00000
C          C         0.946     0.237     0.727   0.00000
C          C         0.237     0.945     0.272   0.00000
C          C         0.764     0.055     0.272   0.00000
C          C         0.945     0.764     0.273   0.00000
C          C         0.056     0.238     0.272   0.00000
C          C         0.762     0.837     0.421   0.00000
C          C         0.837     0.239     0.421   0.00000
C          C         0.163     0.761     0.422   0.00000
C          C         0.762     0.164     0.579   0.00000
C          C         0.239     0.837     0.578   0.00000
C          C         0.164     0.238     0.579   0.00000
C          C         0.836     0.762     0.580   0.00000
C          C         0.761     0.837     0.579   0.00000
C          C         0.239     0.163     0.579   0.00000
C          C         0.164     0.762     0.580   0.00000
C          C         0.837     0.239     0.579   0.00000
C          C         0.238     0.836     0.420   0.00000
C          C         0.762     0.164     0.421   0.00000
C          C         0.837     0.762     0.422   0.00000
C          C         0.164     0.238     0.421   0.00000
C          C         0.631     0.706     0.269   0.00000
C          C         0.707     0.370     0.269   0.00000
C          C         0.293     0.629     0.268   0.00000
C          C         0.629     0.293     0.729   0.00000
C          C         0.371     0.708     0.731   0.00000
C          C         0.294     0.370     0.731   0.00000
C          C         0.707     0.630     0.731   0.00000
C          C         0.630     0.707     0.731   0.00000
C          C         0.371     0.293     0.732   0.00000
C          C         0.294     0.631     0.731   0.00000
C          C         0.707     0.370     0.731   0.00000
C          C         0.370     0.707     0.269   0.00000
C          C         0.631     0.293     0.270   0.00000
C          C         0.708     0.629     0.269   0.00000
C          C         0.294     0.371     0.268   0.00000
C          C         0.553     0.780     0.421   0.00000
C          C         0.780     0.447     0.421   0.00000
C          C         0.220     0.553     0.421   0.00000
C          C         0.552     0.220     0.577   0.00000
C          C         0.447     0.780     0.578   0.00000
C          C         0.220     0.447     0.579   0.00000
C          C         0.780     0.553     0.579   0.00000
C          C         0.553     0.780     0.579   0.00000
C          C         0.446     0.220     0.578   0.00000
C          C         0.220     0.554     0.579   0.00000
C          C         0.780     0.447     0.579   0.00000
C          C         0.447     0.780     0.421   0.00000
C          C         0.552     0.220     0.420   0.00000
C          C         0.780     0.553     0.422   0.00000
C          C         0.220     0.447     0.421   0.00000
O          O         0.854     0.042     0.212   0.00000
O          O         0.042     0.145     0.214   0.00000
O          O         0.958     0.854     0.213   0.00000
O          O         0.854     0.956     0.785   0.00000
O          O         0.146     0.044     0.787   0.00000
O          O         0.956     0.146     0.784   0.00000
O          O         0.044     0.854     0.787   0.00000
O          O         0.854     0.042     0.788   0.00000
O          O         0.146     0.958     0.788   0.00000
O          O         0.958     0.854     0.789   0.00000
O          O         0.042     0.146     0.788   0.00000
O          O         0.146     0.044     0.214   0.00000
O          O         0.854     0.956     0.215   0.00000
O          O         0.042     0.854     0.214   0.00000
O          O         0.957     0.146     0.216   0.00000
O          O         0.806     0.044     0.142   0.00000
O          O         0.044     0.194     0.144   0.00000
O          O         0.957     0.806     0.142   0.00000
O          O         0.808     0.958     0.858   0.00000
O          O         0.192     0.042     0.859   0.00000
O          O         0.958     0.192     0.858   0.00000
O          O         0.042     0.808     0.859   0.00000
O          O         0.806     0.044     0.858   0.00000
O          O         0.193     0.958     0.859   0.00000
O          O         0.957     0.806     0.860   0.00000
O          O         0.043     0.194     0.858   0.00000
O          O         0.192     0.042     0.142   0.00000
O          O         0.808     0.958     0.142   0.00000
O          O         0.042     0.807     0.142   0.00000
O          O         0.958     0.192     0.143   0.00000
C          C         0.838     0.056     0.166   0.00000
C          C         0.056     0.162     0.168   0.00000
C          C         0.944     0.838     0.167   0.00000
C          C         0.839     0.944     0.833   0.00000
C          C         0.161     0.056     0.834   0.00000
C          C         0.944     0.161     0.832   0.00000
C          C         0.056     0.839     0.834   0.00000
C          C         0.838     0.056     0.834   0.00000
C          C         0.162     0.945     0.835   0.00000
C          C         0.944     0.838     0.835   0.00000
C          C         0.056     0.162     0.833   0.00000
C          C         0.161     0.056     0.167   0.00000
C          C         0.839     0.944     0.168   0.00000
C          C         0.055     0.838     0.167   0.00000
C          C         0.945     0.161     0.168   0.00000
C          C         0.859     0.090     0.138   0.00000
C          C         0.090     0.142     0.139   0.00000
C          C         0.910     0.859     0.138   0.00000
C          C         0.859     0.910     0.861   0.00000
C          C         0.141     0.091     0.862   0.00000
C          C         0.910     0.141     0.861   0.00000
C          C         0.091     0.859     0.862   0.00000
C          C         0.859     0.090     0.862   0.00000
C          C         0.142     0.910     0.863   0.00000
C          C         0.910     0.859     0.863   0.00000
C          C         0.091     0.142     0.862   0.00000
C          C         0.141     0.091     0.139   0.00000
C          C         0.859     0.910     0.139   0.00000
C          C         0.090     0.859     0.139   0.00000
C          C         0.910     0.142     0.140   0.00000
C          C         0.891     0.109     0.166   0.00000
C          C         0.109     0.109     0.165   0.00000
C          C         0.891     0.891     0.166   0.00000
C          C         0.891     0.891     0.835   0.00000
C          C         0.109     0.109     0.835   0.00000
C          C         0.891     0.109     0.834   0.00000
C          C         0.109     0.892     0.836   0.00000
H          H         0.902     0.098     0.207   0.00000
H          H         0.098     0.098     0.207   0.00000
H          H         0.902     0.902     0.207   0.00000
H          H         0.902     0.902     0.794   0.00000
H          H         0.098     0.098     0.794   0.00000
H          H         0.902     0.098     0.793   0.00000
H          H         0.098     0.903     0.795   0.00000
C          C         0.846     0.105     0.085   0.00000
C          C         0.105     0.156     0.086   0.00000
C          C         0.895     0.845     0.085   0.00000
C          C         0.844     0.895     0.914   0.00000
C          C         0.156     0.106     0.915   0.00000
C          C         0.896     0.156     0.914   0.00000
C          C         0.105     0.844     0.915   0.00000
C          C         0.845     0.105     0.915   0.00000
C          C         0.156     0.895     0.916   0.00000
C          C         0.895     0.845     0.916   0.00000
C          C         0.105     0.156     0.915   0.00000
C          C         0.155     0.105     0.086   0.00000
C          C         0.844     0.895     0.086   0.00000
C          C         0.105     0.844     0.086   0.00000
C          C         0.896     0.156     0.086   0.00000
H          H         0.820     0.090     0.064   0.00000
H          H         0.090     0.181     0.066   0.00000
H          H         0.910     0.820     0.065   0.00000
H          H         0.819     0.910     0.934   0.00000
H          H         0.181     0.091     0.935   0.00000
H          H         0.911     0.181     0.933   0.00000
H          H         0.091     0.819     0.935   0.00000
H          H         0.820     0.090     0.936   0.00000
H          H         0.181     0.910     0.936   0.00000
H          H         0.910     0.820     0.937   0.00000
H          H         0.090     0.182     0.935   0.00000
H          H         0.181     0.091     0.066   0.00000
H          H         0.819     0.910     0.067   0.00000
H          H         0.090     0.819     0.066   0.00000
H          H         0.911     0.181     0.067   0.00000
C          C         0.864     0.138     0.058   0.00000
C          C         0.137     0.138     0.059   0.00000
C          C         0.862     0.863     0.059   0.00000
C          C         0.862     0.863     0.942   0.00000
C          C         0.137     0.138     0.942   0.00000
C          C         0.864     0.138     0.942   0.00000
C          C         0.138     0.863     0.942   0.00000
C          C         0.850     0.153     0.000   0.00000
C          C         0.152     0.153     0.001   0.00000
C          C         0.847     0.849     0.000   0.00000
H          H         0.855     0.185    -0.000   0.00000
H          H         0.184     0.149     0.001   0.00000
H          H         0.815     0.853     0.001   0.00000
H          H         0.851     0.816     0.000   0.00000
H          H         0.147     0.186     0.001   0.00000
H          H         0.817     0.150     0.000   0.00000
H          H         0.185     0.852     0.001   0.00000
O          O         0.608     0.666     0.141   0.00000
O          O         0.668     0.392     0.140   0.00000
O          O         0.332     0.608     0.139   0.00000
O          O         0.607     0.331     0.860   0.00000
O          O         0.394     0.669     0.858   0.00000
O          O         0.333     0.394     0.859   0.00000
O          O         0.668     0.606     0.859   0.00000
O          O         0.608     0.666     0.861   0.00000
O          O         0.394     0.332     0.859   0.00000
O          O         0.334     0.607     0.859   0.00000
O          O         0.668     0.392     0.859   0.00000
O          O         0.394     0.668     0.141   0.00000
O          O         0.607     0.330     0.142   0.00000
O          O         0.669     0.606     0.142   0.00000
O          O         0.332     0.394     0.139   0.00000
O          O         0.574     0.633     0.211   0.00000
O          O         0.634     0.426     0.211   0.00000
O          O         0.367     0.574     0.208   0.00000
O          O         0.574     0.366     0.790   0.00000
O          O         0.428     0.634     0.789   0.00000
O          O         0.368     0.426     0.789   0.00000
O          O         0.634     0.573     0.788   0.00000
O          O         0.574     0.634     0.788   0.00000
O          O         0.428     0.366     0.789   0.00000
O          O         0.368     0.574     0.788   0.00000
O          O         0.634     0.426     0.788   0.00000
O          O         0.428     0.634     0.211   0.00000
O          O         0.574     0.366     0.211   0.00000
O          O         0.634     0.572     0.211   0.00000
O          O         0.368     0.428     0.208   0.00000
C          C         0.576     0.654     0.165   0.00000
C          C         0.655     0.424     0.164   0.00000
C          C         0.345     0.576     0.163   0.00000
C          C         0.576     0.344     0.836   0.00000
C          C         0.426     0.655     0.835   0.00000
C          C         0.346     0.425     0.834   0.00000
C          C         0.655     0.575     0.834   0.00000
C          C         0.576     0.654     0.835   0.00000
C          C         0.426     0.345     0.835   0.00000
C          C         0.347     0.576     0.834   0.00000
C          C         0.654     0.424     0.835   0.00000
C          C         0.426     0.655     0.165   0.00000
C          C         0.576     0.344     0.165   0.00000
C          C         0.655     0.574     0.166   0.00000
C          C         0.346     0.426     0.163   0.00000
C          C         0.537     0.665     0.138   0.00000
C          C         0.665     0.463     0.136   0.00000
C          C         0.334     0.537     0.135   0.00000
C          C         0.537     0.334     0.863   0.00000
C          C         0.465     0.666     0.863   0.00000
C          C         0.336     0.464     0.861   0.00000
C          C         0.665     0.535     0.862   0.00000
C          C         0.537     0.665     0.863   0.00000
C          C         0.465     0.334     0.862   0.00000
C          C         0.336     0.536     0.861   0.00000
C          C         0.665     0.463     0.862   0.00000
C          C         0.465     0.665     0.138   0.00000
C          C         0.537     0.334     0.137   0.00000
C          C         0.666     0.535     0.137   0.00000
C          C         0.335     0.465     0.136   0.00000
C          C         0.501     0.654     0.164   0.00000
C          C         0.655     0.499     0.163   0.00000
C          C         0.345     0.501     0.162   0.00000
C          C         0.501     0.344     0.836   0.00000
C          C         0.501     0.655     0.836   0.00000
C          C         0.346     0.500     0.835   0.00000
C          C         0.654     0.499     0.836   0.00000
H          H         0.501     0.639     0.205   0.00000
H          H         0.639     0.499     0.204   0.00000
H          H         0.361     0.502     0.203   0.00000
H          H         0.501     0.361     0.796   0.00000
H          H         0.501     0.639     0.795   0.00000
H          H         0.362     0.500     0.794   0.00000
H          H         0.638     0.499     0.795   0.00000
C          C         0.537     0.686     0.085   0.00000
C          C         0.686     0.463     0.084   0.00000
C          C         0.313     0.537     0.083   0.00000
C          C         0.537     0.313     0.916   0.00000
C          C         0.465     0.686     0.915   0.00000
C          C         0.314     0.465     0.914   0.00000
C          C         0.686     0.535     0.914   0.00000
C          C         0.537     0.685     0.915   0.00000
C          C         0.465     0.313     0.915   0.00000
C          C         0.314     0.536     0.913   0.00000
C          C         0.686     0.463     0.915   0.00000
C          C         0.466     0.686     0.085   0.00000
C          C         0.537     0.313     0.085   0.00000
C          C         0.686     0.535     0.085   0.00000
C          C         0.314     0.465     0.083   0.00000
H          H         0.566     0.693     0.065   0.00000
H          H         0.693     0.435     0.063   0.00000
H          H         0.306     0.565     0.063   0.00000
H          H         0.565     0.305     0.936   0.00000
H          H         0.437     0.694     0.935   0.00000
H          H         0.307     0.436     0.934   0.00000
H          H         0.694     0.563     0.934   0.00000
H          H         0.566     0.693     0.935   0.00000
H          H         0.436     0.305     0.935   0.00000
H          H         0.307     0.565     0.933   0.00000
H          H         0.693     0.435     0.935   0.00000
H          H         0.437     0.694     0.065   0.00000
H          H         0.565     0.305     0.065   0.00000
H          H         0.694     0.563     0.065   0.00000
H          H         0.306     0.436     0.064   0.00000
C          C         0.501     0.696     0.058   0.00000
C          C         0.696     0.499     0.058   0.00000
C          C         0.303     0.501     0.057   0.00000
C          C         0.501     0.302     0.942   0.00000
C          C         0.501     0.696     0.942   0.00000
C          C         0.304     0.500     0.940   0.00000
C          C         0.696     0.499     0.941   0.00000
C          C         0.501     0.717     0.000   0.00000
C          C         0.717     0.499    -0.001   0.00000
C          C         0.283     0.501    -0.002   0.00000
H          H         0.527     0.737     0.000   0.00000
H          H         0.737     0.473    -0.001   0.00000
H          H         0.263     0.527    -0.002   0.00000
H          H         0.526     0.261     0.000   0.00000
H          H         0.476     0.737     0.000   0.00000
H          H         0.262     0.475    -0.002   0.00000
H          H         0.737     0.525    -0.001   0.00000
