data_crystal
 
_cell_length_a    33.59100
_cell_length_b    33.55100
_cell_length_c    23.10900
_cell_angle_alpha 90.00000
_cell_angle_beta  90.00000
_cell_angle_gamma 90.00000
 
_symmetry_space_group_name_Hall 'P 1'
_symmetry_space_group_name_H-M  'P 1'
 
loop_
_symmetry_equiv_pos_as_xyz
 'x,y,z' 
 
loop_
_atom_site_label
_atom_site_type_symbol
_atom_site_fract_x
_atom_site_fract_y
_atom_site_fract_z
_atom_site_charge
Cu         Cu      0.22833   0.22709   0.49994   0.0000000000
Cu         Cu      0.17564   0.17499   0.49968   0.0000000000
Cu         Cu      0.34072   0.34130   0.17569   0.0000000000
Cu         Cu      0.37790   0.37796   0.25202   0.0000000000
Cu         Cu      0.49885   0.25707   0.49859   0.0000000000
Cu         Cu      0.49885   0.18292   0.49855   0.0000000000
O          O       0.20526   0.04200   0.29733   0.0000000000
O          O       0.25188   0.04206   0.22493   0.0000000000
O          O       0.25596   0.19567   0.43870   0.0000000000
O          O       0.20708   0.14810   0.43940   0.0000000000
O          O       0.34989   0.29099   0.21978   0.0000000000
O          O       0.38385   0.32530   0.28976   0.0000000000
O          O       0.45616   0.18581   0.43905   0.0000000000
O          O       0.45819   0.25397   0.43628   0.0000000000
C          C       0.25787   0.08879   0.30118   0.0000000000
C          C       0.24006   0.10876   0.34766   0.0000000000
H          H       0.21119   0.09928   0.36371   0.0000000000
C          C       0.25944   0.14152   0.37241   0.0000000000
C          C       0.29678   0.15383   0.35159   0.0000000000
H          H       0.31110   0.17952   0.37141   0.0000000000
C          C       0.31505   0.13347   0.30590   0.0000000000
C          C       0.29511   0.10116   0.28067   0.0000000000
H          H       0.30824   0.08521   0.24436   0.0000000000
C          C       0.37921   0.25540   0.29737   0.0000000000
C          C       0.40544   0.25573   0.34441   0.0000000000
H          H       0.41806   0.28369   0.35938   0.0000000000
C          C       0.41600   0.21981   0.37102   0.0000000000
C          C       0.39987   0.18375   0.35099   0.0000000000
H          H       0.40859   0.15609   0.37211   0.0000000000
C          C       0.37334   0.18318   0.30425   0.0000000000
C          C       0.36322   0.21928   0.27755   0.0000000000
H          H       0.34310   0.21967   0.24064   0.0000000000
C          C       0.35608   0.14441   0.28253   0.0000000000
H          H       0.37665   0.11991   0.29292   0.0000000000
H          H       0.35423   0.14530   0.23502   0.0000000000
C          C       0.23676   0.05478   0.27232   0.0000000000
C          C       0.23947   0.16363   0.42083   0.0000000000
C          C       0.36995   0.29358   0.26661   0.0000000000
C          C       0.44574   0.21990   0.41953   0.0000000000
O          O       0.14578   0.95812   0.21303   0.0000000000
O          O       0.19353   0.95663   0.14237   0.0000000000
C          C       0.16177   0.94423   0.16699   0.0000000000
C          C       0.14123   0.90954   0.13895   0.0000000000
C          C       0.10854   0.89130   0.16574   0.0000000000
H          H       0.09762   0.90227   0.20698   0.0000000000
C          C       0.15537   0.89509   0.08585   0.0000000000
H          H       0.18055   0.90996   0.06560   0.0000000000
C          C       0.13742   0.86230   0.05902   0.0000000000
C          C       0.15212   0.84787   0.00078   0.0000000000
H          H       0.14819   0.81524   0.00065   0.0000000000
O          O       0.39415   0.33415   0.13886   0.0000000000
O          O       0.42800   0.36637   0.21100   0.0000000000
C          C       0.42589   0.34601   0.16427   0.0000000000
C          C       0.46480   0.33448   0.13696   0.0000000000
C          C       0.50094   0.34485   0.16336   0.0000000000
H          H       0.50100   0.36109   0.20403   0.0000000000
C          C       0.46492   0.31340   0.08460   0.0000000000
H          H       0.43658   0.30574   0.06469   0.0000000000
C          C       0.50073   0.30235   0.05825   0.0000000000
C          C       0.50034   0.28172   0.00004   0.0000000000
H          H       0.47417   0.26193   0.00022   0.0000000000
Cu         Cu      0.82668   0.00030   0.74257   0.0000000000
Cu         Cu      0.17293   0.00036   0.74317   0.0000000000
Cu         Cu      0.00033   0.82698   0.74352   0.0000000000
Cu         Cu     -0.00006   0.17308   0.74136   0.0000000000
Cu         Cu      0.17302   0.00036   0.25817   0.0000000000
Cu         Cu      0.82689   0.00015   0.25830   0.0000000000
Cu         Cu     -0.00003   0.82692   0.25804   0.0000000000
Cu         Cu      0.00024   0.17332   0.25877   0.0000000000
Cu         Cu      0.77530   0.00042   0.81972   0.0000000000
Cu         Cu      0.22420   0.00015   0.82003   0.0000000000
Cu         Cu     -0.00000   0.77560   0.82068   0.0000000000
Cu         Cu      0.00024   0.22426   0.81873   0.0000000000
Cu         Cu      0.22414  -0.00012   0.18041   0.0000000000
Cu         Cu      0.77586   0.00036   0.18049   0.0000000000
Cu         Cu     -0.00024   0.77560   0.18080   0.0000000000
Cu         Cu      0.00030   0.22485   0.18131   0.0000000000
Cu         Cu      0.77268   0.77300   0.50089   0.0000000000
Cu         Cu      0.77295   0.22819   0.50006   0.0000000000
Cu         Cu      0.22753   0.77250   0.50006   0.0000000000
Cu         Cu      0.82483   0.82543   0.50045   0.0000000000
Cu         Cu      0.82486   0.17534   0.50015   0.0000000000
Cu         Cu      0.17517   0.82480   0.50006   0.0000000000
Cu         Cu      0.66062   0.65909   0.17798   0.0000000000
Cu         Cu      0.66033   0.33948   0.17794   0.0000000000
Cu         Cu      0.34072   0.66025   0.17686   0.0000000000
Cu         Cu      0.65991   0.33936   0.82180   0.0000000000
Cu         Cu      0.34116   0.66034   0.82206   0.0000000000
Cu         Cu      0.34104   0.34026   0.82232   0.0000000000
Cu         Cu      0.66015   0.65932   0.82241   0.0000000000
Cu         Cu      0.62380   0.62192   0.25440   0.0000000000
Cu         Cu      0.62335   0.37656   0.25423   0.0000000000
Cu         Cu      0.37718   0.62290   0.25289   0.0000000000
Cu         Cu      0.62302   0.37653   0.74542   0.0000000000
Cu         Cu      0.37826   0.62374   0.74573   0.0000000000
Cu         Cu      0.37817   0.37665   0.74603   0.0000000000
Cu         Cu      0.62350   0.62299   0.74508   0.0000000000
Cu         Cu      0.50010   0.74305   0.49998   0.0000000000
Cu         Cu      0.74300   0.49999   0.50002   0.0000000000
Cu         Cu      0.25706   0.50028   0.50015   0.0000000000
Cu         Cu      0.50019   0.81702   0.49981   0.0000000000
Cu         Cu      0.81709   0.49993   0.50011   0.0000000000
Cu         Cu      0.18305   0.50001   0.50006   0.0000000000
O          O       0.79414   0.95866   0.29746   0.0000000000
O          O       0.95862   0.20578   0.29794   0.0000000000
O          O       0.04204   0.79512   0.29733   0.0000000000
O          O       0.79536   0.04378   0.70609   0.0000000000
O          O       0.20431   0.95786   0.70436   0.0000000000
O          O       0.04266   0.20432   0.70280   0.0000000000
O          O       0.95776   0.79568   0.70505   0.0000000000
O          O       0.79411   0.95914   0.70250   0.0000000000
O          O       0.20479   0.04200   0.70345   0.0000000000
O          O       0.04204   0.79512   0.70414   0.0000000000
O          O       0.95841   0.20584   0.70228   0.0000000000
O          O       0.20476   0.95797   0.29672   0.0000000000
O          O       0.79584   0.04304   0.29642   0.0000000000
O          O       0.95799   0.79556   0.29716   0.0000000000
O          O       0.04352   0.20530   0.29508   0.0000000000
O          O       0.74788   0.95803   0.22489   0.0000000000
O          O       0.95799   0.25230   0.22563   0.0000000000
O          O       0.04195   0.74797   0.22571   0.0000000000
O          O       0.74618   0.04194   0.77485   0.0000000000
O          O       0.25212   0.95803   0.77485   0.0000000000
O          O       0.04201   0.25212   0.77342   0.0000000000
O          O       0.95823   0.74767   0.77528   0.0000000000
O          O       0.74785   0.95797   0.77511   0.0000000000
O          O       0.25194   0.04206   0.77507   0.0000000000
O          O       0.04212   0.74782   0.77546   0.0000000000
O          O       0.95794   0.25224   0.77472   0.0000000000
O          O       0.25212   0.95809   0.22532   0.0000000000
O          O       0.74797   0.04206   0.22571   0.0000000000
O          O       0.95808   0.74791   0.22628   0.0000000000
O          O       0.04198   0.25388   0.22550   0.0000000000
O          O       0.74606   0.80439   0.43853   0.0000000000
O          O       0.80495   0.25570   0.43909   0.0000000000
O          O       0.19434   0.74412   0.44108   0.0000000000
O          O       0.74594   0.19603   0.56134   0.0000000000
O          O       0.25593   0.80585   0.55887   0.0000000000
O          O       0.19630   0.25406   0.56117   0.0000000000
O          O       0.80382   0.74609   0.56372   0.0000000000
O          O       0.74410   0.80558   0.56026   0.0000000000
O          O       0.25578   0.19472   0.56078   0.0000000000
O          O       0.19627   0.74609   0.56333   0.0000000000
O          O       0.80513   0.25576   0.56086   0.0000000000
O          O       0.25394   0.80355   0.43671   0.0000000000
O          O       0.74585   0.19609   0.43883   0.0000000000
O          O       0.80593   0.74567   0.44147   0.0000000000
O          O       0.19598   0.25421   0.43883   0.0000000000
O          O       0.79375   0.85318   0.44030   0.0000000000
O          O       0.85198   0.20622   0.43940   0.0000000000
O          O       0.14793   0.79402   0.43935   0.0000000000
O          O       0.79417   0.14792   0.56082   0.0000000000
O          O       0.20589   0.85211   0.56065   0.0000000000
O          O       0.14805   0.20590   0.55952   0.0000000000
O          O       0.85216   0.79410   0.56086   0.0000000000
O          O       0.79399   0.85202   0.56117   0.0000000000
O          O       0.20616   0.14789   0.56078   0.0000000000
O          O       0.14787   0.79407   0.56078   0.0000000000
O          O       0.85198   0.20619   0.56078   0.0000000000
O          O       0.20589   0.85196   0.43935   0.0000000000
O          O       0.79420   0.14804   0.43957   0.0000000000
O          O       0.85210   0.79577   0.43909   0.0000000000
O          O       0.14811   0.20569   0.43909   0.0000000000
O          O       0.65023   0.70934   0.22212   0.0000000000
O          O       0.71001   0.34983   0.22229   0.0000000000
O          O       0.29035   0.65053   0.22195   0.0000000000
O          O       0.65029   0.29016   0.77524   0.0000000000
O          O       0.35000   0.70996   0.77710   0.0000000000
O          O       0.29163   0.34989   0.77749   0.0000000000
O          O       0.70989   0.65035   0.77745   0.0000000000
O          O       0.65014   0.70973   0.77818   0.0000000000
O          O       0.34968   0.29004   0.77758   0.0000000000
O          O       0.29109   0.65032   0.77801   0.0000000000
O          O       0.70974   0.34971   0.77740   0.0000000000
O          O       0.34997   0.70973   0.22234   0.0000000000
O          O       0.65181   0.29001   0.22385   0.0000000000
O          O       0.70998   0.65056   0.22320   0.0000000000
O          O       0.29082   0.35012   0.22160   0.0000000000
O          O       0.61805   0.67423   0.29309   0.0000000000
O          O       0.67560   0.38389   0.29196   0.0000000000
O          O       0.32467   0.61456   0.28976   0.0000000000
O          O       0.61496   0.32479   0.70708   0.0000000000
O          O       0.38564   0.67605   0.70825   0.0000000000
O          O       0.32598   0.38383   0.70765   0.0000000000
O          O       0.67578   0.61608   0.70765   0.0000000000
O          O       0.61656   0.67551   0.70778   0.0000000000
O          O       0.38537   0.32416   0.70912   0.0000000000
O          O       0.32592   0.61787   0.70713   0.0000000000
O          O       0.67515   0.38342   0.70730   0.0000000000
O          O       0.38361   0.67476   0.29209   0.0000000000
O          O       0.61615   0.32437   0.29201   0.0000000000
O          O       0.67604   0.61429   0.29132   0.0000000000
O          O       0.32574   0.38571   0.28932   0.0000000000
O          O       0.54193   0.81422   0.43901   0.0000000000
O          O       0.81438   0.45823   0.43935   0.0000000000
O          O       0.18573   0.54186   0.43922   0.0000000000
O          O       0.54175   0.18581   0.55792   0.0000000000
O          O       0.45837   0.81440   0.56026   0.0000000000
O          O       0.18591   0.45811   0.56095   0.0000000000
O          O       0.81436   0.54174   0.56073   0.0000000000
O          O       0.54187   0.81428   0.56078   0.0000000000
O          O       0.45822   0.18566   0.56065   0.0000000000
O          O       0.18588   0.54195   0.56104   0.0000000000
O          O       0.81430   0.45817   0.56078   0.0000000000
O          O       0.45822   0.81431   0.43918   0.0000000000
O          O       0.53976   0.18566   0.43680   0.0000000000
O          O       0.81436   0.54174   0.43961   0.0000000000
O          O       0.18618   0.45811   0.43914   0.0000000000
O          O       0.54181   0.74600   0.43905   0.0000000000
O          O       0.74621   0.45814   0.43905   0.0000000000
O          O       0.25391   0.54195   0.43901   0.0000000000
O          O       0.53973   0.25400   0.56078   0.0000000000
O          O       0.45825   0.74615   0.56078   0.0000000000
O          O       0.25406   0.45829   0.56091   0.0000000000
O          O       0.74615   0.54186   0.56099   0.0000000000
O          O       0.54190   0.74606   0.56104   0.0000000000
O          O       0.45610   0.25385   0.55831   0.0000000000
O          O       0.25400   0.54192   0.56099   0.0000000000
O          O       0.74612   0.45817   0.56091   0.0000000000
O          O       0.45819   0.74609   0.43909   0.0000000000
O          O       0.54175   0.25385   0.43922   0.0000000000
O          O       0.74615   0.54177   0.43918   0.0000000000
O          O       0.25438   0.45850   0.43957   0.0000000000
C          C       0.74192   0.91148   0.30140   0.0000000000
C          C       0.91200   0.25832   0.30257   0.0000000000
C          C       0.08845   0.74203   0.30226   0.0000000000
C          C       0.74192   0.08945   0.69929   0.0000000000
C          C       0.25772   0.91184   0.69795   0.0000000000
C          C       0.08970   0.25704   0.69852   0.0000000000
C          C       0.91146   0.74251   0.69938   0.0000000000
C          C       0.74172   0.91213   0.69787   0.0000000000
C          C       0.25796   0.08819   0.69826   0.0000000000
C          C       0.08877   0.74230   0.69912   0.0000000000
C          C       0.91191   0.25850   0.69765   0.0000000000
C          C       0.25748   0.91124   0.30127   0.0000000000
C          C       0.74282   0.08933   0.30135   0.0000000000
C          C       0.91176   0.74254   0.30291   0.0000000000
C          C       0.08967   0.25823   0.30084   0.0000000000
C          C       0.76023   0.89166   0.34761   0.0000000000
C          C       0.89202   0.24020   0.34878   0.0000000000
C          C       0.10821   0.75998   0.34874   0.0000000000
C          C       0.76053   0.10939   0.65343   0.0000000000
C          C       0.23980   0.89207   0.65139   0.0000000000
C          C       0.10976   0.23877   0.65247   0.0000000000
C          C       0.89140   0.76081   0.65343   0.0000000000
C          C       0.75976   0.89234   0.65148   0.0000000000
C          C       0.23995   0.10801   0.65182   0.0000000000
C          C       0.10869   0.76063   0.65299   0.0000000000
C          C       0.89208   0.24035   0.65135   0.0000000000
C          C       0.23908   0.89109   0.34705   0.0000000000
C          C       0.76113   0.10945   0.34727   0.0000000000
C          C       0.89197   0.76093   0.34900   0.0000000000
C          C       0.10940   0.23966   0.34692   0.0000000000
H          H       0.78911   0.90146   0.36311   0.0000000000
H          H       0.90143   0.21123   0.36466   0.0000000000
H          H       0.09878   0.78892   0.36466   0.0000000000
H          H       0.78977   0.10006   0.63876   0.0000000000
H          H       0.21065   0.90128   0.63603   0.0000000000
H          H       0.10035   0.20974   0.63694   0.0000000000
H          H       0.90078   0.78996   0.63811   0.0000000000
H          H       0.78872   0.90194   0.63586   0.0000000000
H          H       0.21092   0.09869   0.63625   0.0000000000
H          H       0.09904   0.78957   0.63728   0.0000000000
H          H       0.90158   0.21141   0.63555   0.0000000000
H          H       0.21003   0.90048   0.36259   0.0000000000
H          H       0.79030   0.10024   0.36246   0.0000000000
H          H       0.90149   0.79002   0.36423   0.0000000000
H          H       0.09973   0.21057   0.36194   0.0000000000
C          C       0.74136   0.85881   0.37289   0.0000000000
C          C       0.85928   0.25943   0.37371   0.0000000000
C          C       0.14078   0.74063   0.37397   0.0000000000
C          C       0.74136   0.14178   0.62729   0.0000000000
C          C       0.25930   0.85974   0.62564   0.0000000000
C          C       0.14227   0.25808   0.62711   0.0000000000
C          C       0.85874   0.74165   0.62820   0.0000000000
C          C       0.74059   0.85968   0.62625   0.0000000000
C          C       0.25933   0.14050   0.62647   0.0000000000
C          C       0.14153   0.74162   0.62798   0.0000000000
C          C       0.85934   0.25949   0.62634   0.0000000000
C          C       0.25816   0.85825   0.37198   0.0000000000
C          C       0.74172   0.14184   0.37284   0.0000000000
C          C       0.85946   0.74180   0.37462   0.0000000000
C          C       0.14194   0.25868   0.37276   0.0000000000
C          C       0.70391   0.84623   0.35272   0.0000000000
C          C       0.84701   0.29698   0.35341   0.0000000000
C          C       0.15311   0.70311   0.35359   0.0000000000
C          C       0.70349   0.15386   0.64624   0.0000000000
C          C       0.29701   0.84775   0.64542   0.0000000000
C          C       0.15459   0.29567   0.64719   0.0000000000
C          C       0.84674   0.70382   0.64784   0.0000000000
C          C       0.70302   0.84734   0.64624   0.0000000000
C          C       0.29698   0.15260   0.64633   0.0000000000
C          C       0.15391   0.70403   0.64793   0.0000000000
C          C       0.84689   0.29698   0.64667   0.0000000000
C          C       0.29579   0.84606   0.35211   0.0000000000
C          C       0.70394   0.15383   0.35333   0.0000000000
C          C       0.84716   0.70406   0.35501   0.0000000000
C          C       0.15436   0.29638   0.35333   0.0000000000
H          H       0.68989   0.82054   0.37289   0.0000000000
H          H       0.82138   0.31120   0.37345   0.0000000000
H          H       0.17859   0.68874   0.37379   0.0000000000
H          H       0.68938   0.17925   0.62543   0.0000000000
H          H       0.31151   0.82251   0.62469   0.0000000000
H          H       0.18005   0.30995   0.62677   0.0000000000
H          H       0.82123   0.68958   0.62755   0.0000000000
H          H       0.68882   0.82182   0.62586   0.0000000000
H          H       0.31133   0.17803   0.62586   0.0000000000
H          H       0.17954   0.68996   0.62763   0.0000000000
H          H       0.82129   0.31114   0.62655   0.0000000000
H          H       0.30987   0.82033   0.37211   0.0000000000
H          H       0.68968   0.17922   0.37397   0.0000000000
H          H       0.82168   0.68993   0.37552   0.0000000000
H          H       0.17987   0.31039   0.37397   0.0000000000
C          C       0.68506   0.86647   0.30737   0.0000000000
C          C       0.86740   0.31558   0.30806   0.0000000000
C          C       0.13298   0.68469   0.30780   0.0000000000
C          C       0.68444   0.13353   0.69129   0.0000000000
C          C       0.31541   0.86778   0.69129   0.0000000000
C          C       0.13432   0.31430   0.69263   0.0000000000
C          C       0.86720   0.68499   0.69293   0.0000000000
C          C       0.68447   0.86752   0.69185   0.0000000000
C          C       0.31550   0.13237   0.69194   0.0000000000
C          C       0.13364   0.68520   0.69319   0.0000000000
C          C       0.86714   0.31561   0.69211   0.0000000000
C          C       0.31470   0.86665   0.30724   0.0000000000
C          C       0.68527   0.13338   0.30811   0.0000000000
C          C       0.86732   0.68526   0.30953   0.0000000000
C          C       0.13429   0.31534   0.30798   0.0000000000
C          C       0.70462   0.89884   0.28154   0.0000000000
C          C       0.89959   0.29567   0.28249   0.0000000000
C          C       0.10089   0.70469   0.28205   0.0000000000
C          C       0.70415   0.10161   0.71795   0.0000000000
C          C       0.29526   0.89962   0.71760   0.0000000000
C          C       0.10214   0.29445   0.71842   0.0000000000
C          C       0.89929   0.70487   0.71890   0.0000000000
C          C       0.70444   0.89953   0.71795   0.0000000000
C          C       0.29544   0.10044   0.71803   0.0000000000
C          C       0.10137   0.70490   0.71894   0.0000000000
C          C       0.89938   0.29579   0.71777   0.0000000000
C          C       0.29499   0.89899   0.28162   0.0000000000
C          C       0.70522   0.10143   0.28197   0.0000000000
C          C       0.89935   0.70508   0.28335   0.0000000000
C          C       0.10217   0.29579   0.28167   0.0000000000
H          H       0.69099   0.91464   0.24549   0.0000000000
H          H       0.91548   0.30896   0.24627   0.0000000000
H          H       0.08514   0.69151   0.24562   0.0000000000
H          H       0.69018   0.08575   0.75369   0.0000000000
H          H       0.30848   0.91520   0.75417   0.0000000000
H          H       0.08630   0.30804   0.75447   0.0000000000
H          H       0.91519   0.69134   0.75494   0.0000000000
H          H       0.69111   0.91514   0.75438   0.0000000000
H          H       0.30871   0.08471   0.75442   0.0000000000
H          H       0.08562   0.69134   0.75507   0.0000000000
H          H       0.91516   0.30911   0.75408   0.0000000000
H          H       0.30856   0.91514   0.24588   0.0000000000
H          H       0.69164   0.08542   0.24605   0.0000000000
H          H       0.91507   0.69145   0.24726   0.0000000000
H          H       0.08651   0.30965   0.24566   0.0000000000
C          C       0.62091   0.74436   0.30001   0.0000000000
C          C       0.74541   0.37948   0.29967   0.0000000000
C          C       0.25495   0.62010   0.29884   0.0000000000
C          C       0.61975   0.25501   0.69843   0.0000000000
C          C       0.37977   0.74570   0.70003   0.0000000000
C          C       0.25602   0.37921   0.69986   0.0000000000
C          C       0.74550   0.62085   0.70007   0.0000000000
C          C       0.62067   0.74537   0.70072   0.0000000000
C          C       0.37957   0.25439   0.70046   0.0000000000
C          C       0.25581   0.62105   0.70007   0.0000000000
C          C       0.74493   0.37918   0.69981   0.0000000000
C          C       0.37918   0.74475   0.30019   0.0000000000
C          C       0.62082   0.25466   0.30027   0.0000000000
C          C       0.74562   0.62034   0.29988   0.0000000000
C          C       0.25608   0.38020   0.29923   0.0000000000
C          C       0.59430   0.74403   0.34666   0.0000000000
C          C       0.74490   0.40580   0.34662   0.0000000000
C          C       0.25540   0.59384   0.34593   0.0000000000
C          C       0.59311   0.25558   0.65187   0.0000000000
C          C       0.40609   0.74504   0.65312   0.0000000000
C          C       0.25617   0.40583   0.65317   0.0000000000
C          C       0.74493   0.59441   0.65325   0.0000000000
C          C       0.59427   0.74475   0.65386   0.0000000000
C          C       0.40553   0.25501   0.65308   0.0000000000
C          C       0.25605   0.59450   0.65330   0.0000000000
C          C       0.74451   0.40562   0.65299   0.0000000000
C          C       0.40567   0.74442   0.34692   0.0000000000
C          C       0.59394   0.25522   0.34657   0.0000000000
C          C       0.74499   0.59384   0.34662   0.0000000000
C          C       0.25668   0.40649   0.34627   0.0000000000
H          H       0.58150   0.71613   0.36159   0.0000000000
H          H       0.71695   0.41841   0.36146   0.0000000000
H          H       0.28329   0.58115   0.36090   0.0000000000
H          H       0.58024   0.28357   0.63746   0.0000000000
H          H       0.41880   0.71706   0.63854   0.0000000000
H          H       0.28395   0.41885   0.63837   0.0000000000
H          H       0.71695   0.58180   0.63854   0.0000000000
H          H       0.58176   0.71670   0.63910   0.0000000000
H          H       0.41791   0.28306   0.63802   0.0000000000
H          H       0.28392   0.58183   0.63806   0.0000000000
H          H       0.71659   0.41823   0.63798   0.0000000000
H          H       0.41833   0.71643   0.36176   0.0000000000
H          H       0.58111   0.28318   0.36111   0.0000000000
H          H       0.71710   0.58088   0.36098   0.0000000000
H          H       0.28466   0.41933   0.36077   0.0000000000
C          C       0.58349   0.78001   0.37293   0.0000000000
C          C       0.78069   0.41659   0.37314   0.0000000000
C          C       0.21958   0.58335   0.37276   0.0000000000
C          C       0.58251   0.21978   0.62508   0.0000000000
C          C       0.41669   0.78078   0.62625   0.0000000000
C          C       0.22021   0.41635   0.62677   0.0000000000
C          C       0.78069   0.58353   0.62673   0.0000000000
C          C       0.58343   0.78051   0.62711   0.0000000000
C          C       0.41603   0.21928   0.62608   0.0000000000
C          C       0.22006   0.58362   0.62716   0.0000000000
C          C       0.78039   0.41644   0.62668   0.0000000000
C          C       0.41636   0.78030   0.37336   0.0000000000
C          C       0.58295   0.21940   0.37297   0.0000000000
C          C       0.78069   0.58347   0.37371   0.0000000000
C          C       0.22086   0.41674   0.37340   0.0000000000
C          C       0.59986   0.81604   0.35311   0.0000000000
C          C       0.81680   0.40049   0.35333   0.0000000000
C          C       0.18353   0.59959   0.35294   0.0000000000
C          C       0.59894   0.18366   0.64438   0.0000000000
C          C       0.40046   0.81697   0.64572   0.0000000000
C          C       0.18428   0.39981   0.64650   0.0000000000
C          C       0.81680   0.59965   0.64646   0.0000000000
C          C       0.59957   0.81667   0.64676   0.0000000000
C          C       0.40017   0.18306   0.64603   0.0000000000
C          C       0.18407   0.59986   0.64728   0.0000000000
C          C       0.81644   0.40041   0.64672   0.0000000000
C          C       0.40011   0.81637   0.35346   0.0000000000
C          C       0.59927   0.18324   0.35363   0.0000000000
C          C       0.81674   0.59998   0.35454   0.0000000000
C          C       0.18490   0.40023   0.35406   0.0000000000
H          H       0.59102   0.84373   0.37405   0.0000000000
H          H       0.84436   0.40950   0.37431   0.0000000000
H          H       0.15596   0.59074   0.37401   0.0000000000
H          H       0.59007   0.15615   0.62313   0.0000000000
H          H       0.40948   0.84448   0.62456   0.0000000000
H          H       0.15665   0.40863   0.62551   0.0000000000
H          H       0.84433   0.59065   0.62534   0.0000000000
H          H       0.59060   0.84424   0.62564   0.0000000000
H          H       0.40904   0.15552   0.62478   0.0000000000
H          H       0.15641   0.59080   0.62655   0.0000000000
H          H       0.84407   0.40941   0.62590   0.0000000000
H          H       0.40910   0.84403   0.37431   0.0000000000
H          H       0.59019   0.15567   0.37457   0.0000000000
H          H       0.84421   0.59122   0.37600   0.0000000000
H          H       0.15748   0.40905   0.37552   0.0000000000
C          C       0.62666   0.81661   0.30672   0.0000000000
C          C       0.81751   0.37382   0.30676   0.0000000000
C          C       0.18288   0.62630   0.30637   0.0000000000
C          C       0.62573   0.18292   0.69077   0.0000000000
C          C       0.37370   0.81780   0.69215   0.0000000000
C          C       0.18386   0.37295   0.69285   0.0000000000
C          C       0.81760   0.62639   0.69298   0.0000000000
C          C       0.62633   0.81750   0.69324   0.0000000000
C          C       0.37379   0.18220   0.69293   0.0000000000
C          C       0.18359   0.62678   0.69358   0.0000000000
C          C       0.81706   0.37361   0.69319   0.0000000000
C          C       0.37325   0.81697   0.30715   0.0000000000
C          C       0.62648   0.18250   0.30776   0.0000000000
C          C       0.81757   0.62681   0.30815   0.0000000000
C          C       0.18413   0.37367   0.30750   0.0000000000
C          C       0.63693   0.78048   0.28028   0.0000000000
C          C       0.78152   0.36342   0.28011   0.0000000000
C          C       0.21890   0.63637   0.27950   0.0000000000
C          C       0.63603   0.21889   0.71756   0.0000000000
C          C       0.36349   0.78182   0.71916   0.0000000000
C          C       0.22000   0.36276   0.71929   0.0000000000
C          C       0.78164   0.63682   0.71968   0.0000000000
C          C       0.63669   0.78156   0.72011   0.0000000000
C          C       0.36370   0.21818   0.72011   0.0000000000
C          C       0.21973   0.63706   0.71989   0.0000000000
C          C       0.78101   0.36321   0.71959   0.0000000000
C          C       0.36301   0.78084   0.28063   0.0000000000
C          C       0.63705   0.21850   0.28119   0.0000000000
C          C       0.78167   0.63676   0.28084   0.0000000000
C          C       0.22000   0.36371   0.28024   0.0000000000
H          H       0.65717   0.77998   0.24354   0.0000000000
H          H       0.78122   0.34312   0.24337   0.0000000000
H          H       0.21931   0.65664   0.24276   0.0000000000
H          H       0.65646   0.21922   0.75412   0.0000000000
H          H       0.34316   0.78153   0.75581   0.0000000000
H          H       0.22051   0.34231   0.75581   0.0000000000
H          H       0.78140   0.65709   0.75646   0.0000000000
H          H       0.65699   0.78138   0.75680   0.0000000000
H          H       0.34372   0.21835   0.75715   0.0000000000
H          H       0.22027   0.65736   0.75663   0.0000000000
H          H       0.78054   0.34288   0.75629   0.0000000000
H          H       0.34265   0.78039   0.24397   0.0000000000
H          H       0.65768   0.21883   0.24488   0.0000000000
H          H       0.78143   0.65709   0.24410   0.0000000000
H          H       0.22030   0.34348   0.24345   0.0000000000
C          C       0.64386   0.85535   0.28482   0.0000000000
C          C       0.85630   0.35665   0.28500   0.0000000000
C          C       0.14409   0.64356   0.28478   0.0000000000
C          C       0.64273   0.14402   0.71236   0.0000000000
C          C       0.35673   0.85684   0.71353   0.0000000000
C          C       0.14519   0.35567   0.71483   0.0000000000
C          C       0.85651   0.64341   0.71466   0.0000000000
C          C       0.64336   0.85646   0.71466   0.0000000000
C          C       0.35676   0.14321   0.71440   0.0000000000
C          C       0.14483   0.64395   0.71561   0.0000000000
C          C       0.85579   0.35659   0.71526   0.0000000000
C          C       0.35605   0.85574   0.28513   0.0000000000
C          C       0.64371   0.14366   0.28638   0.0000000000
C          C       0.85645   0.64397   0.28703   0.0000000000
C          C       0.14519   0.35674   0.28617   0.0000000000
H          H       0.62332   0.87982   0.29556   0.0000000000
H          H       0.88068   0.37734   0.29543   0.0000000000
H          H       0.11970   0.62284   0.29534   0.0000000000
H          H       0.62258   0.11955   0.70007   0.0000000000
H          H       0.37730   0.88111   0.70189   0.0000000000
H          H       0.12063   0.37605   0.70384   0.0000000000
H          H       0.88089   0.62302   0.70284   0.0000000000
H          H       0.62273   0.88081   0.70371   0.0000000000
H          H       0.37730   0.11886   0.70310   0.0000000000
H          H       0.12042   0.62332   0.70488   0.0000000000
H          H       0.88015   0.37740   0.70514   0.0000000000
H          H       0.37644   0.88027   0.29612   0.0000000000
H          H       0.62362   0.11913   0.29837   0.0000000000
H          H       0.88080   0.62344   0.29841   0.0000000000
H          H       0.12098   0.37728   0.29811   0.0000000000
H          H       0.64529   0.85449   0.23727   0.0000000000
H          H       0.85538   0.35495   0.23748   0.0000000000
H          H       0.14489   0.64523   0.23722   0.0000000000
H          H       0.64312   0.14435   0.75996   0.0000000000
H          H       0.35575   0.85643   0.76113   0.0000000000
H          H       0.14602   0.35453   0.76243   0.0000000000
H          H       0.85606   0.64409   0.76226   0.0000000000
H          H       0.64485   0.85583   0.76221   0.0000000000
H          H       0.35551   0.14375   0.76195   0.0000000000
H          H       0.14578   0.64532   0.76317   0.0000000000
H          H       0.85466   0.35480   0.76278   0.0000000000
H          H       0.35492   0.85482   0.23753   0.0000000000
H          H       0.64452   0.14399   0.23878   0.0000000000
H          H       0.85603   0.64529   0.23943   0.0000000000
H          H       0.14554   0.35597   0.23861   0.0000000000
C          C       0.76285   0.94558   0.27245   0.0000000000
C          C       0.94573   0.23719   0.27327   0.0000000000
C          C       0.05469   0.76329   0.27301   0.0000000000
C          C       0.76279   0.05565   0.72920   0.0000000000
C          C       0.23643   0.94540   0.72785   0.0000000000
C          C       0.05537   0.23615   0.72699   0.0000000000
C          C       0.94534   0.76358   0.72863   0.0000000000
C          C       0.76282   0.94587   0.72734   0.0000000000
C          C       0.23658   0.05463   0.72777   0.0000000000
C          C       0.05484   0.76338   0.72842   0.0000000000
C          C       0.94558   0.23731   0.72695   0.0000000000
C          C       0.23652   0.94534   0.27232   0.0000000000
C          C       0.76390   0.05541   0.27223   0.0000000000
C          C       0.94534   0.76361   0.27323   0.0000000000
C          C       0.05555   0.23761   0.27154   0.0000000000
C          C       0.76184   0.83696   0.42118   0.0000000000
C          C       0.83689   0.23904   0.42135   0.0000000000
C          C       0.16284   0.76096   0.42213   0.0000000000
C          C       0.76193   0.16375   0.57925   0.0000000000
C          C       0.23902   0.83738   0.57774   0.0000000000
C          C       0.16403   0.23791   0.57869   0.0000000000
C          C       0.83638   0.76206   0.58034   0.0000000000
C          C       0.76095   0.83726   0.57856   0.0000000000
C          C       0.23899   0.16286   0.57869   0.0000000000
C          C       0.16376   0.76203   0.58012   0.0000000000
C          C       0.83698   0.23901   0.57869   0.0000000000
C          C       0.23789   0.83607   0.41997   0.0000000000
C          C       0.76199   0.16387   0.42096   0.0000000000
C          C       0.83743   0.76248   0.42239   0.0000000000
C          C       0.16385   0.23806   0.42079   0.0000000000
C          C       0.63076   0.70621   0.26938   0.0000000000
C          C       0.70730   0.37003   0.26894   0.0000000000
C          C       0.29302   0.62940   0.26769   0.0000000000
C          C       0.62937   0.29305   0.72933   0.0000000000
C          C       0.37075   0.70755   0.73093   0.0000000000
C          C       0.29425   0.36994   0.73067   0.0000000000
C          C       0.70733   0.63015   0.73075   0.0000000000
C          C       0.63017   0.70716   0.73136   0.0000000000
C          C       0.37055   0.29254   0.73153   0.0000000000
C          C       0.29401   0.63077   0.73075   0.0000000000
C          C       0.70686   0.36974   0.73058   0.0000000000
C          C       0.36995   0.70669   0.26920   0.0000000000
C          C       0.63070   0.29272   0.26972   0.0000000000
C          C       0.70751   0.62937   0.26899   0.0000000000
C          C       0.29392   0.37099   0.26760   0.0000000000
C          C       0.55345   0.78004   0.42100   0.0000000000
C          C       0.78033   0.44657   0.42126   0.0000000000
C          C       0.21979   0.55346   0.42105   0.0000000000
C          C       0.55235   0.21993   0.57722   0.0000000000
C          C       0.44673   0.78033   0.57835   0.0000000000
C          C       0.22006   0.44654   0.57882   0.0000000000
C          C       0.78027   0.55340   0.57878   0.0000000000
C          C       0.55342   0.78019   0.57895   0.0000000000
C          C       0.44571   0.21973   0.57757   0.0000000000
C          C       0.21997   0.55352   0.57908   0.0000000000
C          C       0.78021   0.44657   0.57878   0.0000000000
C          C       0.44658   0.78019   0.42126   0.0000000000
C          C       0.55244   0.21973   0.42031   0.0000000000
C          C       0.78030   0.55337   0.42157   0.0000000000
C          C       0.22045   0.44675   0.42144   0.0000000000
O          O       0.85428   0.04179   0.21178   0.0000000000
O          O       0.04198   0.14542   0.21360   0.0000000000
O          O       0.95779   0.85389   0.21277   0.0000000000
O          O       0.85374   0.95642   0.78489   0.0000000000
O          O       0.14599   0.04361   0.78692   0.0000000000
O          O       0.95639   0.14614   0.78424   0.0000000000
O          O       0.04367   0.85410   0.78653   0.0000000000
O          O       0.85431   0.04176   0.78826   0.0000000000
O          O       0.14584   0.95809   0.78839   0.0000000000
O          O       0.95805   0.85398   0.78865   0.0000000000
O          O       0.04201   0.14596   0.78753   0.0000000000
O          O       0.14599   0.04355   0.21433   0.0000000000
O          O       0.85380   0.95645   0.21546   0.0000000000
O          O       0.04212   0.85410   0.21351   0.0000000000
O          O       0.95660   0.14620   0.21585   0.0000000000
O          O       0.80617   0.04375   0.14181   0.0000000000
O          O       0.04355   0.19406   0.14414   0.0000000000
O          O       0.95677   0.80621   0.14189   0.0000000000
O          O       0.80787   0.95839   0.85815   0.0000000000
O          O       0.19234   0.04220   0.85932   0.0000000000
O          O       0.95835   0.19210   0.85754   0.0000000000
O          O       0.04206   0.80779   0.85910   0.0000000000
O          O       0.80590   0.04378   0.85789   0.0000000000
O          O       0.19327   0.95777   0.85936   0.0000000000
O          O       0.95701   0.80632   0.85967   0.0000000000
O          O       0.04314   0.19394   0.85798   0.0000000000
O          O       0.19213   0.04197   0.14159   0.0000000000
O          O       0.80789   0.95827   0.14220   0.0000000000
O          O       0.04209   0.80701   0.14185   0.0000000000
O          O       0.95841   0.19239   0.14289   0.0000000000
C          C       0.83817   0.05589   0.16608   0.0000000000
C          C       0.05576   0.16184   0.16790   0.0000000000
C          C       0.94418   0.83798   0.16652   0.0000000000
C          C       0.83859   0.94432   0.83253   0.0000000000
C          C       0.16141   0.05609   0.83409   0.0000000000
C          C       0.94421   0.16137   0.83175   0.0000000000
C          C       0.05591   0.83878   0.83387   0.0000000000
C          C       0.83802   0.05586   0.83383   0.0000000000
C          C       0.16171   0.94474   0.83474   0.0000000000
C          C       0.94442   0.83804   0.83491   0.0000000000
C          C       0.05579   0.16211   0.83348   0.0000000000
C          C       0.16132   0.05591   0.16699   0.0000000000
C          C       0.83871   0.94432   0.16790   0.0000000000
C          C       0.05534   0.83840   0.16690   0.0000000000
C          C       0.94451   0.16149   0.16833   0.0000000000
C          C       0.85901   0.09046   0.13804   0.0000000000
C          C       0.09032   0.14166   0.13912   0.0000000000
C          C       0.90956   0.85854   0.13843   0.0000000000
C          C       0.85859   0.90954   0.86131   0.0000000000
C          C       0.14144   0.09103   0.86239   0.0000000000
C          C       0.90968   0.14128   0.86066   0.0000000000
C          C       0.09074   0.85875   0.86239   0.0000000000
C          C       0.85868   0.09049   0.86183   0.0000000000
C          C       0.14159   0.90984   0.86282   0.0000000000
C          C       0.90962   0.85869   0.86261   0.0000000000
C          C       0.09050   0.14190   0.86196   0.0000000000
C          C       0.14123   0.09070   0.13856   0.0000000000
C          C       0.85871   0.90951   0.13934   0.0000000000
C          C       0.09020   0.85860   0.13886   0.0000000000
C          C       0.90983   0.14158   0.13951   0.0000000000
C          C       0.89140   0.10870   0.16556   0.0000000000
C          C       0.10851   0.10882   0.16539   0.0000000000
C          C       0.89143   0.89115   0.16565   0.0000000000
C          C       0.89134   0.89112   0.83513   0.0000000000
C          C       0.10878   0.10921   0.83543   0.0000000000
C          C       0.89110   0.10864   0.83426   0.0000000000
C          C       0.10902   0.89157   0.83591   0.0000000000
H          H       0.90188   0.09788   0.20711   0.0000000000
H          H       0.09765   0.09767   0.20659   0.0000000000
H          H       0.90241   0.90170   0.20706   0.0000000000
H          H       0.90238   0.90167   0.79376   0.0000000000
H          H       0.09794   0.09812   0.79419   0.0000000000
H          H       0.90158   0.09770   0.79276   0.0000000000
H          H       0.09815   0.90254   0.79463   0.0000000000
C          C       0.84555   0.10491   0.08456   0.0000000000
C          C       0.10455   0.15600   0.08598   0.0000000000
C          C       0.89518   0.84474   0.08508   0.0000000000
C          C       0.84412   0.89541   0.91441   0.0000000000
C          C       0.15564   0.10560   0.91536   0.0000000000
C          C       0.89584   0.15567   0.91389   0.0000000000
C          C       0.10518   0.84445   0.91536   0.0000000000
C          C       0.84520   0.10486   0.91536   0.0000000000
C          C       0.15576   0.89535   0.91592   0.0000000000
C          C       0.89509   0.84489   0.91583   0.0000000000
C          C       0.10476   0.15624   0.91510   0.0000000000
C          C       0.15540   0.10533   0.08555   0.0000000000
C          C       0.84439   0.89544   0.08611   0.0000000000
C          C       0.10476   0.84424   0.08598   0.0000000000
C          C       0.89610   0.15582   0.08598   0.0000000000
H          H       0.82049   0.09016   0.06383   0.0000000000
H          H       0.08982   0.18146   0.06616   0.0000000000
H          H       0.90995   0.81956   0.06465   0.0000000000
H          H       0.81855   0.91008   0.93397   0.0000000000
H          H       0.18109   0.09106   0.93539   0.0000000000
H          H       0.91072   0.18119   0.93336   0.0000000000
H          H       0.09053   0.81896   0.93518   0.0000000000
H          H       0.82010   0.09007   0.93604   0.0000000000
H          H       0.18097   0.91023   0.93613   0.0000000000
H          H       0.90989   0.81980   0.93656   0.0000000000
H          H       0.08993   0.18157   0.93509   0.0000000000
H          H       0.18091   0.09085   0.06552   0.0000000000
H          H       0.81882   0.91011   0.06664   0.0000000000
H          H       0.09014   0.81869   0.06621   0.0000000000
H          H       0.91087   0.18140   0.06660   0.0000000000
C          C       0.86377   0.13779   0.05829   0.0000000000
C          C       0.13724   0.13809   0.05885   0.0000000000
C          C       0.86231   0.86287   0.05872   0.0000000000
C          C       0.86223   0.86304   0.94210   0.0000000000
C          C       0.13745   0.13827   0.94227   0.0000000000
C          C       0.86353   0.13764   0.94175   0.0000000000
C          C       0.13775   0.86251   0.94249   0.0000000000
C          C       0.84960   0.15272   0.00000   0.0000000000
C          C       0.15165   0.15299   0.00065   0.0000000000
C          C       0.84728   0.84892   0.00039   0.0000000000
H          H       0.85466   0.18518  -0.00017   0.0000000000
H          H       0.18428   0.14924   0.00074   0.0000000000
H          H       0.81483   0.85345   0.00056   0.0000000000
H          H       0.85056   0.81619   0.00030   0.0000000000
H          H       0.14748   0.18560   0.00074   0.0000000000
H          H       0.81689   0.14992   0.00017   0.0000000000
H          H       0.18469   0.85181   0.00113   0.0000000000
O          O       0.60784   0.66606   0.14068   0.0000000000
O          O       0.66768   0.39224   0.13964   0.0000000000
O          O       0.33232   0.60788   0.13882   0.0000000000
O          O       0.60742   0.33078   0.86001   0.0000000000
O          O       0.39436   0.66925   0.85841   0.0000000000
O          O       0.33277   0.39367   0.85871   0.0000000000
O          O       0.66792   0.60597   0.85893   0.0000000000
O          O       0.60754   0.66573   0.86083   0.0000000000
O          O       0.39415   0.33218   0.85858   0.0000000000
O          O       0.33402   0.60714   0.85858   0.0000000000
O          O       0.66768   0.39248   0.85880   0.0000000000
O          O       0.39445   0.66782   0.14051   0.0000000000
O          O       0.60739   0.33048   0.14168   0.0000000000
O          O       0.66911   0.60556   0.14181   0.0000000000
O          O       0.33247   0.39444   0.13930   0.0000000000
O          O       0.57402   0.63253   0.21148   0.0000000000
O          O       0.63389   0.42598   0.21052   0.0000000000
O          O       0.36682   0.57387   0.20845   0.0000000000
O          O       0.57405   0.36604   0.79030   0.0000000000
O          O       0.42794   0.63384   0.78913   0.0000000000
O          O       0.36819   0.42646   0.78896   0.0000000000
O          O       0.63380   0.57301   0.78805   0.0000000000
O          O       0.57390   0.63381   0.78805   0.0000000000
O          O       0.42821   0.36643   0.78865   0.0000000000
O          O       0.36816   0.57369   0.78826   0.0000000000
O          O       0.63359   0.42610   0.78835   0.0000000000
O          O       0.42773   0.63378   0.21139   0.0000000000
O          O       0.57384   0.36604   0.21070   0.0000000000
O          O       0.63359   0.57214   0.21109   0.0000000000
O          O       0.36816   0.42783   0.20849   0.0000000000
C          C       0.57614   0.65351   0.16539   0.0000000000
C          C       0.65455   0.42383   0.16418   0.0000000000
C          C       0.34548   0.57617   0.16279   0.0000000000
C          C       0.57599   0.34443   0.83578   0.0000000000
C          C       0.42589   0.65539   0.83470   0.0000000000
C          C       0.34637   0.42502   0.83426   0.0000000000
C          C       0.65464   0.57453   0.83422   0.0000000000
C          C       0.57593   0.65384   0.83496   0.0000000000
C          C       0.42589   0.34533   0.83452   0.0000000000
C          C       0.34682   0.57551   0.83396   0.0000000000
C          C       0.65443   0.42407   0.83452   0.0000000000
C          C       0.42592   0.65467   0.16522   0.0000000000
C          C       0.57584   0.34437   0.16535   0.0000000000
C          C       0.65509   0.57405   0.16561   0.0000000000
C          C       0.34625   0.42595   0.16336   0.0000000000
C          C       0.53729   0.66466   0.13765   0.0000000000
C          C       0.66509   0.46282   0.13635   0.0000000000
C          C       0.33429   0.53721   0.13536   0.0000000000
C          C       0.53693   0.33376   0.86317   0.0000000000
C          C       0.46486   0.66585   0.86256   0.0000000000
C          C       0.33554   0.46422   0.86144   0.0000000000
C          C       0.66512   0.53539   0.86183   0.0000000000
C          C       0.53699   0.66478   0.86274   0.0000000000
C          C       0.46474   0.33400   0.86248   0.0000000000
C          C       0.33560   0.53647   0.86118   0.0000000000
C          C       0.66497   0.46315   0.86209   0.0000000000
C          C       0.46512   0.66511   0.13765   0.0000000000
C          C       0.53696   0.33376   0.13735   0.0000000000
C          C       0.66554   0.53507   0.13735   0.0000000000
C          C       0.33482   0.46496   0.13583   0.0000000000
C          C       0.50115   0.65450   0.16418   0.0000000000
C          C       0.65482   0.49885   0.16331   0.0000000000
C          C       0.34512   0.50124   0.16201   0.0000000000
C          C       0.50100   0.34449   0.83643   0.0000000000
C          C       0.50079   0.65497   0.83604   0.0000000000
C          C       0.34610   0.50028   0.83487   0.0000000000
C          C       0.65440   0.49924   0.83561   0.0000000000
H          H       0.50124   0.63861   0.20511   0.0000000000
H          H       0.63880   0.49855   0.20408   0.0000000000
H          H       0.36111   0.50159   0.20282   0.0000000000
H          H       0.50124   0.36067   0.79575   0.0000000000
H          H       0.50052   0.63918   0.79501   0.0000000000
H          H       0.36239   0.50016   0.79428   0.0000000000
H          H       0.63827   0.49915   0.79484   0.0000000000
C          C       0.53729   0.68552   0.08508   0.0000000000
C          C       0.68584   0.46312   0.08378   0.0000000000
C          C       0.31342   0.53671   0.08287   0.0000000000
C          C       0.53651   0.31281   0.91557   0.0000000000
C          C       0.46530   0.68639   0.91540   0.0000000000
C          C       0.31431   0.46458   0.91367   0.0000000000
C          C       0.68590   0.53510   0.91445   0.0000000000
C          C       0.53705   0.68546   0.91544   0.0000000000
C          C       0.46474   0.31290   0.91488   0.0000000000
C          C       0.31431   0.53635   0.91341   0.0000000000
C          C       0.68575   0.46332   0.91467   0.0000000000
C          C       0.46554   0.68582   0.08495   0.0000000000
C          C       0.53666   0.31287   0.08473   0.0000000000
C          C       0.68629   0.53501   0.08473   0.0000000000
C          C       0.31386   0.46484   0.08330   0.0000000000
H          H       0.56563   0.69300   0.06504   0.0000000000
H          H       0.69340   0.43486   0.06340   0.0000000000
H          H       0.30562   0.56490   0.06257   0.0000000000
H          H       0.56479   0.30527   0.93578   0.0000000000
H          H       0.43714   0.69441   0.93548   0.0000000000
H          H       0.30660   0.43626   0.93379   0.0000000000
H          H       0.69370   0.56347   0.93422   0.0000000000
H          H       0.56551   0.69256   0.93535   0.0000000000
H          H       0.43643   0.30512   0.93474   0.0000000000
H          H       0.30666   0.56472   0.93319   0.0000000000
H          H       0.69346   0.43495   0.93457   0.0000000000
H          H       0.43729   0.69351   0.06482   0.0000000000
H          H       0.56497   0.30503   0.06491   0.0000000000
H          H       0.69408   0.56341   0.06504   0.0000000000
H          H       0.30639   0.43635   0.06353   0.0000000000
C          C       0.50147   0.69625   0.05838   0.0000000000
C          C       0.69650   0.49915   0.05755   0.0000000000
C          C       0.30297   0.50064   0.05656   0.0000000000
C          C       0.50052   0.30226   0.94184   0.0000000000
C          C       0.50132   0.69649   0.94206   0.0000000000
C          C       0.30350   0.50049   0.94007   0.0000000000
C          C       0.69644   0.49924   0.94115   0.0000000000
C          C       0.50147   0.71694   0.00026   0.0000000000
C          C       0.71701   0.49930  -0.00065   0.0000000000
C          C       0.28269   0.50061  -0.00190   0.0000000000
H          H       0.52731   0.73727   0.00022   0.0000000000
H          H       0.73716   0.47334  -0.00078   0.0000000000
H          H       0.26266   0.52666  -0.00212   0.0000000000
H          H       0.52580   0.26095   0.00004   0.0000000000
H          H       0.47560   0.73718   0.00035   0.0000000000
H          H       0.26218   0.47495  -0.00208   0.0000000000
H          H       0.73734   0.52508  -0.00074   0.0000000000
