# CIF file generated by openbabel 2.4.1, see http://openbabel.sf.net
data_I
_chemical_name_common 'cif2pytmp3.pdb'
_cell_length_a 16.627
_cell_length_b 27.141
_cell_length_c 28.356
_cell_angle_alpha 90
_cell_angle_beta 90
_cell_angle_gamma 90
_space_group_name_H-M_alt 'P 1'
_space_group_name_Hall 'P 1'
loop_
    _symmetry_equiv_pos_as_xyz
    x,y,z
loop_
    _atom_site_label
    _atom_site_type_symbol
    _atom_site_fract_x
    _atom_site_fract_y
    _atom_site_fract_z
    _atom_site_occupancy
    Zn0     Zn   0.84092   0.21296   0.77814   1.000
    Zn1     Zn   0.15908   0.78704   0.77814   1.000
    Zn2     Zn   0.09094   0.03703   0.02814   1.000
    Zn3     Zn   0.40909   0.46299   0.02814   1.000
    Zn4     Zn   0.34089   0.21296   0.27814   1.000
    Zn5     Zn   0.65911   0.78704   0.27814   1.000
    Zn6     Zn   0.59091   0.03703   0.52814   1.000
    Zn7     Zn   0.90906   0.46299   0.52814   1.000
    Zn8     Zn   0.84092   0.71298   0.27814   1.000
    Zn9     Zn   0.15908   0.28702   0.27814   1.000
    Zn10    Zn   0.09094   0.53701   0.52814   1.000
    Zn11    Zn   0.40909   0.96297   0.52814   1.000
    Zn12    Zn   0.34089   0.71298   0.77814   1.000
    Zn13    Zn   0.65911   0.28702   0.77814   1.000
    Zn14    Zn   0.59091   0.53701   0.02814   1.000
    Zn15    Zn   0.90906   0.96297   0.02814   1.000
    Zn16    Zn   0.69381   0.14867   0.83369   1.000
    Zn17    Zn   0.30619   0.85133   0.83369   1.000
    Zn18    Zn   0.94383   0.10132   0.08369   1.000
    Zn19    Zn   0.55614   0.39866   0.08369   1.000
    Zn20    Zn   0.19384   0.14867   0.33369   1.000
    Zn21    Zn   0.80616   0.85133   0.33369   1.000
    Zn22    Zn   0.44386   0.10132   0.58369   1.000
    Zn23    Zn   0.05617   0.39866   0.58369   1.000
    Zn24    Zn   0.69381   0.64869   0.33369   1.000
    Zn25    Zn   0.30619   0.35131   0.33369   1.000
    Zn26    Zn   0.94383   0.60134   0.58369   1.000
    Zn27    Zn   0.55614   0.89868   0.58369   1.000
    Zn28    Zn   0.19384   0.64869   0.83369   1.000
    Zn29    Zn   0.80616   0.35131   0.83369   1.000
    Zn30    Zn   0.44386   0.60134   0.08369   1.000
    Zn31    Zn   0.05617   0.89868   0.08369   1.000
    Zn32    Zn   0.59728   0.19447   0.70705   1.000
    Zn33    Zn   0.40272   0.80553   0.70705   1.000
    Zn34    Zn   0.84730   0.05552   0.95705   1.000
    Zn35    Zn   0.65273   0.44446   0.95705   1.000
    Zn36    Zn   0.09731   0.19447   0.20705   1.000
    Zn37    Zn   0.90269   0.80553   0.20705   1.000
    Zn38    Zn   0.34727   0.05552   0.45705   1.000
    Zn39    Zn   0.15270   0.44446   0.45705   1.000
    Zn40    Zn   0.59728   0.69445   0.20705   1.000
    Zn41    Zn   0.40272   0.30555   0.20705   1.000
    Zn42    Zn   0.84730   0.55554   0.45705   1.000
    Zn43    Zn   0.65273   0.94448   0.45705   1.000
    Zn44    Zn   0.09731   0.69445   0.70705   1.000
    Zn45    Zn   0.90269   0.30555   0.70705   1.000
    Zn46    Zn   0.34727   0.55554   0.95705   1.000
    Zn47    Zn   0.15270   0.94448   0.95705   1.000
    O48     O    0.76388   0.20821   0.82861   1.000
    O49     O    0.23612   0.79179   0.82861   1.000
    O50     O    0.01389   0.04178   0.07861   1.000
    O51     O    0.48608   0.45820   0.07861   1.000
    O52     O    0.26391   0.20821   0.32861   1.000
    O53     O    0.73609   0.79179   0.32861   1.000
    O54     O    0.51392   0.04178   0.57861   1.000
    O55     O    0.98611   0.45820   0.57861   1.000
    O56     O    0.76388   0.70819   0.32861   1.000
    O57     O    0.23612   0.29181   0.32861   1.000
    O58     O    0.01389   0.54180   0.57861   1.000
    O59     O    0.48608   0.95822   0.57861   1.000
    O60     O    0.26391   0.70819   0.82861   1.000
    O61     O    0.73609   0.29181   0.82861   1.000
    O62     O    0.51392   0.54180   0.07861   1.000
    O63     O    0.98611   0.95822   0.07861   1.000
    N64     N    0.63992   0.19760   0.88320   1.000
    N65     N    0.36008   0.80240   0.88320   1.000
    N66     N    0.88988   0.05239   0.13320   1.000
    N67     N    0.61009   0.44759   0.13320   1.000
    N68     N    0.13989   0.19760   0.38320   1.000
    N69     N    0.86011   0.80240   0.38320   1.000
    N70     N    0.38991   0.05239   0.63320   1.000
    N71     N    0.11012   0.44759   0.63320   1.000
    N72     N    0.63992   0.69762   0.38320   1.000
    N73     N    0.36008   0.30238   0.38320   1.000
    N74     N    0.88988   0.55241   0.63320   1.000
    N75     N    0.61009   0.94761   0.63320   1.000
    N76     N    0.13989   0.69762   0.88320   1.000
    N77     N    0.86011   0.30238   0.88320   1.000
    N78     N    0.38991   0.55241   0.13320   1.000
    N79     N    0.11012   0.94761   0.13320   1.000
    C80     C    0.57611   0.18761   0.91099   1.000
    C81     C    0.42389   0.81239   0.91099   1.000
    C82     C    0.82613   0.06241   0.16099   1.000
    C83     C    0.67390   0.43760   0.16099   1.000
    C84     C    0.07608   0.18761   0.41099   1.000
    C85     C    0.92392   0.81239   0.41099   1.000
    C86     C    0.32610   0.06241   0.66099   1.000
    C87     C    0.17387   0.43760   0.66099   1.000
    C88     C    0.57611   0.68759   0.41099   1.000
    C89     C    0.42389   0.31241   0.41099   1.000
    C90     C    0.82613   0.56240   0.66099   1.000
    C91     C    0.67390   0.93759   0.66099   1.000
    C92     C    0.07608   0.68759   0.91099   1.000
    C93     C    0.92392   0.31241   0.91099   1.000
    C94     C    0.32610   0.56240   0.16099   1.000
    C95     C    0.17387   0.93759   0.16099   1.000
    H96     H    0.55109   0.15711   0.90810   1.000
    H97     H    0.44891   0.84289   0.90810   1.000
    H98     H    0.80111   0.09289   0.15810   1.000
    H99     H    0.69892   0.40710   0.15810   1.000
    H100    H    0.05112   0.15711   0.40810   1.000
    H101    H    0.94888   0.84289   0.40810   1.000
    H102    H    0.30108   0.09289   0.65810   1.000
    H103    H    0.19889   0.40710   0.65810   1.000
    H104    H    0.55109   0.65709   0.40810   1.000
    H105    H    0.44891   0.34291   0.40810   1.000
    H106    H    0.80111   0.59290   0.65810   1.000
    H107    H    0.69892   0.90711   0.65810   1.000
    H108    H    0.05112   0.65709   0.90810   1.000
    H109    H    0.94888   0.34291   0.90810   1.000
    H110    H    0.30108   0.59290   0.15810   1.000
    H111    H    0.19889   0.90711   0.15810   1.000
    C112    C    0.54760   0.21941   0.94241   1.000
    C113    C    0.45240   0.78059   0.94241   1.000
    C114    C    0.79762   0.03062   0.19241   1.000
    C115    C    0.70241   0.46940   0.19241   1.000
    C116    C    0.04757   0.21941   0.44241   1.000
    C117    C    0.95243   0.78059   0.44241   1.000
    C118    C    0.29759   0.03062   0.69241   1.000
    C119    C    0.20238   0.46940   0.69241   1.000
    C120    C    0.54760   0.71939   0.44241   1.000
    C121    C    0.45240   0.28061   0.44241   1.000
    C122    C    0.79762   0.53060   0.69241   1.000
    C123    C    0.70241   0.96938   0.69241   1.000
    C124    C    0.04757   0.71939   0.94241   1.000
    C125    C    0.95243   0.28061   0.94241   1.000
    C126    C    0.29759   0.53060   0.19241   1.000
    C127    C    0.20238   0.96938   0.19241   1.000
    H128    H    0.50250   0.21149   0.96029   1.000
    H129    H    0.49750   0.78851   0.96029   1.000
    H130    H    0.75251   0.03850   0.21029   1.000
    H131    H    0.74752   0.46152   0.21029   1.000
    H132    H    0.00253   0.21149   0.46029   1.000
    H133    H    0.99747   0.78851   0.46029   1.000
    H134    H    0.25248   0.03850   0.71029   1.000
    H135    H    0.24749   0.46152   0.71029   1.000
    H136    H    0.50250   0.71151   0.46029   1.000
    H137    H    0.49750   0.28849   0.46029   1.000
    H138    H    0.75251   0.53848   0.71029   1.000
    H139    H    0.74752   0.96150   0.71029   1.000
    H140    H    0.00253   0.71151   0.96029   1.000
    H141    H    0.99747   0.28849   0.96029   1.000
    H142    H    0.25248   0.53848   0.21029   1.000
    H143    H    0.24749   0.96150   0.21029   1.000
    C144    C    0.58658   0.26561   0.94841   1.000
    C145    C    0.41342   0.73439   0.94841   1.000
    C146    C    0.83659   0.98441   0.19841   1.000
    C147    C    0.66338   0.51560   0.19841   1.000
    C148    C    0.08661   0.26561   0.44841   1.000
    C149    C    0.91339   0.73439   0.44841   1.000
    C150    C    0.33662   0.98441   0.69841   1.000
    C151    C    0.16341   0.51560   0.69841   1.000
    C152    C    0.58658   0.76559   0.44841   1.000
    C153    C    0.41342   0.23441   0.44841   1.000
    C154    C    0.83659   0.48440   0.69841   1.000
    C155    C    0.66338   0.01559   0.69841   1.000
    C156    C    0.08661   0.76559   0.94841   1.000
    C157    C    0.91339   0.23441   0.94841   1.000
    C158    C    0.33662   0.48440   0.19841   1.000
    C159    C    0.16341   0.01559   0.19841   1.000
    H160    H    0.56829   0.28801   0.97080   1.000
    H161    H    0.43171   0.71199   0.97080   1.000
    H162    H    0.81831   0.96201   0.22080   1.000
    H163    H    0.68172   0.53801   0.22080   1.000
    H164    H    0.06832   0.28801   0.47080   1.000
    H165    H    0.93168   0.71199   0.47080   1.000
    H166    H    0.31828   0.96201   0.72080   1.000
    H167    H    0.18169   0.53801   0.72080   1.000
    H168    H    0.56829   0.78800   0.47080   1.000
    H169    H    0.43171   0.21200   0.47080   1.000
    H170    H    0.81831   0.46199   0.72080   1.000
    H171    H    0.68172   0.03799   0.72080   1.000
    H172    H    0.06832   0.78800   0.97080   1.000
    H173    H    0.93168   0.21200   0.97080   1.000
    H174    H    0.31828   0.46199   0.22080   1.000
    H175    H    0.18169   0.03799   0.22080   1.000
    C176    C    0.65063   0.27619   0.92111   1.000
    C177    C    0.34937   0.72381   0.92111   1.000
    C178    C    0.90058   0.97380   0.17111   1.000
    C179    C    0.59939   0.52621   0.17111   1.000
    C180    C    0.15060   0.27619   0.42111   1.000
    C181    C    0.84940   0.72381   0.42111   1.000
    C182    C    0.40061   0.97380   0.67111   1.000
    C183    C    0.09942   0.52621   0.67111   1.000
    C184    C    0.65063   0.77621   0.42111   1.000
    C185    C    0.34937   0.22379   0.42111   1.000
    C186    C    0.90058   0.47379   0.67111   1.000
    C187    C    0.59939   0.02620   0.67111   1.000
    C188    C    0.15060   0.77621   0.92111   1.000
    C189    C    0.84940   0.22379   0.92111   1.000
    C190    C    0.40061   0.47379   0.17111   1.000
    C191    C    0.09942   0.02620   0.17111   1.000
    H192    H    0.67649   0.30640   0.92330   1.000
    H193    H    0.32351   0.69360   0.92330   1.000
    H194    H    0.92651   0.94359   0.17330   1.000
    H195    H    0.57352   0.55639   0.17330   1.000
    H196    H    0.17652   0.30640   0.42330   1.000
    H197    H    0.82348   0.69360   0.42330   1.000
    H198    H    0.42647   0.94359   0.67330   1.000
    H199    H    0.07349   0.55639   0.67330   1.000
    H200    H    0.67649   0.80642   0.42330   1.000
    H201    H    0.32351   0.19358   0.42330   1.000
    H202    H    0.92651   0.44361   0.67330   1.000
    H203    H    0.57352   0.05641   0.67330   1.000
    H204    H    0.17652   0.80642   0.92330   1.000
    H205    H    0.82348   0.19358   0.92330   1.000
    H206    H    0.42647   0.44361   0.17330   1.000
    H207    H    0.07349   0.05641   0.17330   1.000
    C208    C    0.67721   0.23990   0.88898   1.000
    C209    C    0.32279   0.76010   0.88898   1.000
    C210    C    0.92723   0.01010   0.13898   1.000
    C211    C    0.57280   0.48989   0.13898   1.000
    C212    C    0.17718   0.23990   0.38898   1.000
    C213    C    0.82282   0.76010   0.38898   1.000
    C214    C    0.42720   0.01010   0.63898   1.000
    C215    C    0.07277   0.48989   0.63898   1.000
    C216    C    0.67721   0.73991   0.38898   1.000
    C217    C    0.32279   0.26009   0.38898   1.000
    C218    C    0.92723   0.51011   0.63898   1.000
    C219    C    0.57280   0.98990   0.63898   1.000
    C220    C    0.17718   0.73991   0.88898   1.000
    C221    C    0.82282   0.26009   0.88898   1.000
    C222    C    0.42720   0.51011   0.13898   1.000
    C223    C    0.07277   0.98990   0.13898   1.000
    C224    C    0.74998   0.24999   0.85619   1.000
    C225    C    0.25002   0.75001   0.85619   1.000
    C226    C    0.00000   0.00000   0.10619   1.000
    C227    C    0.49997   0.49998   0.10619   1.000
    C228    C    0.25002   0.24999   0.35619   1.000
    C229    C    0.74998   0.75001   0.35619   1.000
    C230    C    0.50003   0.00000   0.60619   1.000
    C231    C    0.00000   0.50002   0.60619   1.000
    O232    O    0.81957   0.25519   0.72531   1.000
    O233    O    0.18043   0.74481   0.72531   1.000
    O234    O    0.06959   0.99480   0.97531   1.000
    O235    O    0.43038   0.50521   0.97531   1.000
    O236    O    0.31960   0.25519   0.22531   1.000
    O237    O    0.68040   0.74481   0.22531   1.000
    O238    O    0.56962   0.99480   0.47531   1.000
    O239    O    0.93041   0.50521   0.47531   1.000
    O240    O    0.81957   0.75520   0.22531   1.000
    O241    O    0.18043   0.24480   0.22531   1.000
    O242    O    0.06959   0.49479   0.47531   1.000
    O243    O    0.43038   0.00520   0.47531   1.000
    O244    O    0.31960   0.75520   0.72531   1.000
    O245    O    0.68040   0.24480   0.72531   1.000
    O246    O    0.56962   0.49479   0.97531   1.000
    O247    O    0.93041   0.00520   0.97531   1.000
    N248    N    0.69291   0.17579   0.66169   1.000
    N249    N    0.30709   0.82421   0.66169   1.000
    N250    N    0.94292   0.07421   0.91169   1.000
    N251    N    0.55711   0.42581   0.91169   1.000
    N252    N    0.19288   0.17579   0.16169   1.000
    N253    N    0.80712   0.82421   0.16169   1.000
    N254    N    0.44289   0.07421   0.41169   1.000
    N255    N    0.05708   0.42581   0.41169   1.000
    N256    N    0.69291   0.67580   0.16169   1.000
    N257    N    0.30709   0.32420   0.16169   1.000
    N258    N    0.94292   0.57419   0.41169   1.000
    N259    N    0.55711   0.92579   0.41169   1.000
    N260    N    0.19288   0.67580   0.66169   1.000
    N261    N    0.80712   0.32420   0.66169   1.000
    N262    N    0.44289   0.57419   0.91169   1.000
    N263    N    0.05708   0.92579   0.91169   1.000
    C264    C    0.69327   0.13559   0.63228   1.000
    C265    C    0.30673   0.86441   0.63228   1.000
    C266    C    0.94328   0.11440   0.88228   1.000
    C267    C    0.55668   0.38562   0.88228   1.000
    C268    C    0.19330   0.13559   0.13228   1.000
    C269    C    0.80670   0.86441   0.13228   1.000
    C270    C    0.44332   0.11440   0.38228   1.000
    C271    C    0.05671   0.38562   0.38228   1.000
    C272    C    0.69327   0.63561   0.13228   1.000
    C273    C    0.30673   0.36439   0.13228   1.000
    C274    C    0.94328   0.61438   0.38228   1.000
    C275    C    0.55668   0.88560   0.38228   1.000
    C276    C    0.19330   0.63561   0.63228   1.000
    C277    C    0.80670   0.36439   0.63228   1.000
    C278    C    0.44332   0.61438   0.88228   1.000
    C279    C    0.05671   0.88560   0.88228   1.000
    H280    H    0.64738   0.11628   0.62921   1.000
    H281    H    0.35262   0.88372   0.62921   1.000
    H282    H    0.89740   0.13371   0.87921   1.000
    H283    H    0.60257   0.36631   0.87921   1.000
    H284    H    0.14741   0.11628   0.12921   1.000
    H285    H    0.85259   0.88372   0.12921   1.000
    H286    H    0.39743   0.13371   0.37921   1.000
    H287    H    0.10260   0.36631   0.37921   1.000
    H288    H    0.64738   0.61630   0.12921   1.000
    H289    H    0.35262   0.38370   0.12921   1.000
    H290    H    0.89740   0.63369   0.37921   1.000
    H291    H    0.60257   0.86629   0.37921   1.000
    H292    H    0.14741   0.61630   0.62921   1.000
    H293    H    0.85259   0.38370   0.62921   1.000
    H294    H    0.39743   0.63369   0.87921   1.000
    H295    H    0.10260   0.86629   0.87921   1.000
    C296    C    0.75871   0.12461   0.60851   1.000
    C297    C    0.24129   0.87539   0.60851   1.000
    C298    C    0.00872   0.12538   0.85851   1.000
    C299    C    0.49131   0.37460   0.85851   1.000
    C300    C    0.25868   0.12461   0.10851   1.000
    C301    C    0.74132   0.87539   0.10851   1.000
    C302    C    0.50869   0.12538   0.35851   1.000
    C303    C    0.99128   0.37460   0.35851   1.000
    C304    C    0.75871   0.62459   0.10851   1.000
    C305    C    0.24129   0.37541   0.10851   1.000
    C306    C    0.00872   0.62540   0.35851   1.000
    C307    C    0.49131   0.87462   0.35851   1.000
    C308    C    0.25868   0.62459   0.60851   1.000
    C309    C    0.74132   0.37541   0.60851   1.000
    C310    C    0.50869   0.62540   0.85851   1.000
    C311    C    0.99128   0.87462   0.85851   1.000
    H312    H    0.75979   0.09569   0.59081   1.000
    H313    H    0.24021   0.90431   0.59081   1.000
    H314    H    0.00980   0.15431   0.84081   1.000
    H315    H    0.49023   0.34571   0.84081   1.000
    H316    H    0.25982   0.09569   0.09081   1.000
    H317    H    0.74018   0.90431   0.09081   1.000
    H318    H    0.50977   0.15431   0.34081   1.000
    H319    H    0.99020   0.34571   0.34081   1.000
    H320    H    0.75979   0.59570   0.09081   1.000
    H321    H    0.24021   0.40430   0.09081   1.000
    H322    H    0.00980   0.65429   0.34081   1.000
    H323    H    0.49023   0.84569   0.34081   1.000
    H324    H    0.25982   0.59570   0.59081   1.000
    H325    H    0.74018   0.40430   0.59081   1.000
    H326    H    0.50977   0.65429   0.84081   1.000
    H327    H    0.99020   0.84569   0.84081   1.000
    C328    C    0.83028   0.15659   0.60901   1.000
    C329    C    0.16972   0.84341   0.60901   1.000
    C330    C    0.08029   0.09340   0.85901   1.000
    C331    C    0.41968   0.40662   0.85901   1.000
    C332    C    0.33031   0.15659   0.10901   1.000
    C333    C    0.66969   0.84341   0.10901   1.000
    C334    C    0.58032   0.09340   0.35901   1.000
    C335    C    0.91971   0.40662   0.35901   1.000
    C336    C    0.83028   0.65661   0.10901   1.000
    C337    C    0.16972   0.34339   0.10901   1.000
    C338    C    0.08029   0.59338   0.35901   1.000
    C339    C    0.41968   0.90660   0.35901   1.000
    C340    C    0.33031   0.65661   0.60901   1.000
    C341    C    0.66969   0.34339   0.60901   1.000
    C342    C    0.58032   0.59338   0.85901   1.000
    C343    C    0.91971   0.90660   0.85901   1.000
    H344    H    0.87460   0.15121   0.58972   1.000
    H345    H    0.12540   0.84879   0.58972   1.000
    H346    H    0.12462   0.09882   0.83972   1.000
    H347    H    0.37541   0.40120   0.83972   1.000
    H348    H    0.37457   0.15121   0.08972   1.000
    H349    H    0.62543   0.84879   0.08972   1.000
    H350    H    0.62459   0.09882   0.33972   1.000
    H351    H    0.87538   0.40120   0.33972   1.000
    H352    H    0.87460   0.65119   0.08972   1.000
    H353    H    0.12540   0.34881   0.08972   1.000
    H354    H    0.12462   0.59880   0.33972   1.000
    H355    H    0.37541   0.90118   0.33972   1.000
    H356    H    0.37457   0.65119   0.58972   1.000
    H357    H    0.62543   0.34881   0.58972   1.000
    H358    H    0.62459   0.59880   0.83972   1.000
    H359    H    0.87538   0.90118   0.83972   1.000
    C360    C    0.82613   0.19568   0.64110   1.000
    C361    C    0.17387   0.80432   0.64110   1.000
    C362    C    0.07608   0.05431   0.89110   1.000
    C363    C    0.42389   0.44571   0.89110   1.000
    C364    C    0.32610   0.19568   0.14110   1.000
    C365    C    0.67390   0.80432   0.14110   1.000
    C366    C    0.57611   0.05431   0.39110   1.000
    C367    C    0.92392   0.44571   0.39110   1.000
    C368    C    0.82613   0.69570   0.14110   1.000
    C369    C    0.17387   0.30430   0.14110   1.000
    C370    C    0.07608   0.55429   0.39110   1.000
    C371    C    0.42389   0.94569   0.39110   1.000
    C372    C    0.32610   0.69570   0.64110   1.000
    C373    C    0.67390   0.30430   0.64110   1.000
    C374    C    0.57611   0.55429   0.89110   1.000
    C375    C    0.92392   0.94569   0.89110   1.000
    H376    H    0.87117   0.21539   0.64568   1.000
    H377    H    0.12883   0.78461   0.64568   1.000
    H378    H    0.12119   0.03460   0.89568   1.000
    H379    H    0.37878   0.46538   0.89568   1.000
    H380    H    0.37120   0.21539   0.14568   1.000
    H381    H    0.62880   0.78461   0.14568   1.000
    H382    H    0.62122   0.03460   0.39568   1.000
    H383    H    0.87881   0.46538   0.39568   1.000
    H384    H    0.87117   0.71541   0.14568   1.000
    H385    H    0.12883   0.28459   0.14568   1.000
    H386    H    0.12119   0.53462   0.39568   1.000
    H387    H    0.37878   0.96540   0.39568   1.000
    H388    H    0.37120   0.71541   0.64568   1.000
    H389    H    0.62880   0.28459   0.64568   1.000
    H390    H    0.62122   0.53462   0.89568   1.000
    H391    H    0.87881   0.96540   0.89568   1.000
    C392    C    0.75810   0.20548   0.66550   1.000
    C393    C    0.24190   0.79452   0.66550   1.000
    C394    C    0.00812   0.04451   0.91550   1.000
    C395    C    0.49191   0.45551   0.91550   1.000
    C396    C    0.25807   0.20548   0.16550   1.000
    C397    C    0.74193   0.79452   0.16550   1.000
    C398    C    0.50809   0.04451   0.41550   1.000
    C399    C    0.99188   0.45551   0.41550   1.000
    C400    C    0.75810   0.70550   0.16550   1.000
    C401    C    0.24190   0.29450   0.16550   1.000
    C402    C    0.00812   0.54449   0.41550   1.000
    C403    C    0.49191   0.95549   0.41550   1.000
    C404    C    0.25807   0.70550   0.66550   1.000
    C405    C    0.74193   0.29450   0.66550   1.000
    C406    C    0.50809   0.54449   0.91550   1.000
    C407    C    0.99188   0.95549   0.91550   1.000
    C408    C    0.74998   0.24999   0.69759   1.000
    C409    C    0.25002   0.75001   0.69759   1.000
    C410    C    0.00000   0.00000   0.94759   1.000
    C411    C    0.50003   0.50002   0.94759   1.000
    C412    C    0.25002   0.24999   0.19759   1.000
    C413    C    0.74998   0.75001   0.19759   1.000
    C414    C    0.49997   0.00000   0.44759   1.000
    C415    C    0.00000   0.49998   0.44759   1.000
    O416    O    0.58038   0.12649   0.73279   1.000
    O417    O    0.41962   0.87351   0.73279   1.000
    O418    O    0.83040   0.12350   0.98279   1.000
    O419    O    0.66957   0.37652   0.98279   1.000
    O420    O    0.08041   0.12649   0.23279   1.000
    O421    O    0.91959   0.87351   0.23279   1.000
    O422    O    0.33043   0.12350   0.48279   1.000
    O423    O    0.16960   0.37652   0.48279   1.000
    O424    O    0.58038   0.62651   0.23279   1.000
    O425    O    0.41962   0.37349   0.23279   1.000
    O426    O    0.83040   0.62348   0.48279   1.000
    O427    O    0.66957   0.87650   0.48279   1.000
    O428    O    0.08041   0.62651   0.73279   1.000
    O429    O    0.91959   0.37349   0.73279   1.000
    O430    O    0.33043   0.62348   0.98279   1.000
    O431    O    0.16960   0.87650   0.98279   1.000
    O432    O    0.58700   0.12649   0.81112   1.000
    O433    O    0.41300   0.87351   0.81112   1.000
    O434    O    0.83701   0.12350   0.06112   1.000
    O435    O    0.66302   0.37652   0.06112   1.000
    O436    O    0.08703   0.12649   0.31112   1.000
    O437    O    0.91297   0.87351   0.31112   1.000
    O438    O    0.33698   0.12350   0.56112   1.000
    O439    O    0.16299   0.37652   0.56112   1.000
    O440    O    0.58700   0.62651   0.31112   1.000
    O441    O    0.41300   0.37349   0.31112   1.000
    O442    O    0.83701   0.62348   0.56112   1.000
    O443    O    0.66302   0.87650   0.56112   1.000
    O444    O    0.08703   0.62651   0.81112   1.000
    O445    O    0.91297   0.37349   0.81112   1.000
    O446    O    0.33698   0.62348   0.06112   1.000
    O447    O    0.16299   0.87650   0.06112   1.000
    C448    C    0.55909   0.11499   0.77222   1.000
    C449    C    0.44091   0.88501   0.77222   1.000
    C450    C    0.80911   0.13500   0.02222   1.000
    C451    C    0.69092   0.36498   0.02222   1.000
    C452    C    0.05912   0.11499   0.27222   1.000
    C453    C    0.94088   0.88501   0.27222   1.000
    C454    C    0.30908   0.13500   0.52222   1.000
    C455    C    0.19089   0.36498   0.52222   1.000
    C456    C    0.55909   0.61501   0.27222   1.000
    C457    C    0.44091   0.38499   0.27222   1.000
    C458    C    0.80911   0.63502   0.52222   1.000
    C459    C    0.69092   0.86500   0.52222   1.000
    C460    C    0.05912   0.61501   0.77222   1.000
    C461    C    0.94088   0.38499   0.77222   1.000
    C462    C    0.30908   0.63502   0.02222   1.000
    C463    C    0.19089   0.86500   0.02222   1.000
    C464    C    0.48872   0.07829   0.77522   1.000
    C465    C    0.51128   0.92171   0.77522   1.000
    C466    C    0.73868   0.17170   0.02522   1.000
    C467    C    0.76129   0.32829   0.02522   1.000
    C468    C    0.98869   0.07829   0.27522   1.000
    C469    C    0.01131   0.92171   0.27522   1.000
    C470    C    0.23871   0.17170   0.52522   1.000
    C471    C    0.26132   0.32829   0.52522   1.000
    C472    C    0.48872   0.57831   0.27522   1.000
    C473    C    0.51128   0.42169   0.27522   1.000
    C474    C    0.73868   0.67171   0.52522   1.000
    C475    C    0.76129   0.82830   0.52522   1.000
    C476    C    0.98869   0.57831   0.77522   1.000
    C477    C    0.01131   0.42169   0.77522   1.000
    C478    C    0.23871   0.67171   0.02522   1.000
    C479    C    0.26132   0.82830   0.02522   1.000
    H480    H    0.50592   0.04919   0.79151   1.000
    H481    H    0.49408   0.95081   0.79151   1.000
    H482    H    0.75588   0.20080   0.04151   1.000
    H483    H    0.74409   0.29922   0.04151   1.000
    H484    H    0.00589   0.04919   0.29151   1.000
    H485    H    0.99411   0.95081   0.29151   1.000
    H486    H    0.25591   0.20080   0.54151   1.000
    H487    H    0.24412   0.29922   0.54151   1.000
    H488    H    0.50592   0.54921   0.29151   1.000
    H489    H    0.49408   0.45079   0.29151   1.000
    H490    H    0.75588   0.70078   0.54151   1.000
    H491    H    0.74409   0.79920   0.54151   1.000
    H492    H    0.00589   0.54921   0.79151   1.000
    H493    H    0.99411   0.45079   0.79151   1.000
    H494    H    0.25591   0.70078   0.04151   1.000
    H495    H    0.24412   0.79920   0.04151   1.000
    H496    H    0.47140   0.06971   0.74390   1.000
    H497    H    0.52860   0.93029   0.74390   1.000
    H498    H    0.72142   0.18032   0.99390   1.000
    H499    H    0.77861   0.31970   0.99390   1.000
    H500    H    0.97137   0.06971   0.24390   1.000
    H501    H    0.02863   0.93029   0.24390   1.000
    H502    H    0.22139   0.18032   0.49390   1.000
    H503    H    0.27858   0.31970   0.49390   1.000
    H504    H    0.47140   0.56969   0.24390   1.000
    H505    H    0.52860   0.43031   0.24390   1.000
    H506    H    0.72142   0.68030   0.49390   1.000
    H507    H    0.77861   0.81968   0.49390   1.000
    H508    H    0.97137   0.56969   0.74390   1.000
    H509    H    0.02863   0.43031   0.74390   1.000
    H510    H    0.22139   0.68030   0.99390   1.000
    H511    H    0.27858   0.81968   0.99390   1.000
    H512    H    0.44488   0.09322   0.79200   1.000
    H513    H    0.55512   0.90678   0.79200   1.000
    H514    H    0.69489   0.15681   0.04200   1.000
    H515    H    0.80508   0.34321   0.04200   1.000
    H516    H    0.94491   0.09322   0.29200   1.000
    H517    H    0.05509   0.90678   0.29200   1.000
    H518    H    0.19492   0.15681   0.54200   1.000
    H519    H    0.30511   0.34321   0.54200   1.000
    H520    H    0.44488   0.59320   0.29200   1.000
    H521    H    0.55512   0.40680   0.29200   1.000
    H522    H    0.69489   0.65679   0.54200   1.000
    H523    H    0.80508   0.84319   0.54200   1.000
    H524    H    0.94491   0.59320   0.79200   1.000
    H525    H    0.05509   0.40680   0.79200   1.000
    H526    H    0.19492   0.65679   0.04200   1.000
    H527    H    0.30511   0.84319   0.04200   1.000
    O528    O    0.98881   0.28109   0.75681   1.000
    O529    O    0.01119   0.71891   0.75681   1.000
    O530    O    0.23883   0.96890   0.00681   1.000
    O531    O    0.26120   0.53112   0.00681   1.000
    O532    O    0.48878   0.28109   0.25681   1.000
    O533    O    0.51122   0.71891   0.25681   1.000
    O534    O    0.73880   0.96890   0.50681   1.000
    O535    O    0.76117   0.53112   0.50681   1.000
    O536    O    0.98881   0.78111   0.25681   1.000
    O537    O    0.01119   0.21889   0.25681   1.000
    O538    O    0.23883   0.46888   0.50681   1.000
    O539    O    0.26120   0.03110   0.50681   1.000
    O540    O    0.48878   0.78111   0.75681   1.000
    O541    O    0.51122   0.21889   0.75681   1.000
    O542    O    0.73880   0.46888   0.00681   1.000
    O543    O    0.76117   0.03110   0.00681   1.000
    O544    O    0.94082   0.23172   0.81020   1.000
    O545    O    0.05918   0.76828   0.81020   1.000
    O546    O    0.19077   0.01831   0.06020   1.000
    O547    O    0.30920   0.48171   0.06020   1.000
    O548    O    0.44079   0.23172   0.31020   1.000
    O549    O    0.55921   0.76828   0.31020   1.000
    O550    O    0.69080   0.01831   0.56020   1.000
    O551    O    0.80923   0.48171   0.56020   1.000
    O552    O    0.94082   0.73170   0.31020   1.000
    O553    O    0.05918   0.26830   0.31020   1.000
    O554    O    0.19077   0.51829   0.56020   1.000
    O555    O    0.30920   0.98169   0.56020   1.000
    O556    O    0.44079   0.73170   0.81020   1.000
    O557    O    0.55921   0.26830   0.81020   1.000
    O558    O    0.69080   0.51829   0.06020   1.000
    O559    O    0.80923   0.98169   0.06020   1.000
    C560    C    0.99381   0.26071   0.79331   1.000
    C561    C    0.00619   0.73929   0.79331   1.000
    C562    C    0.24382   0.98932   0.04331   1.000
    C563    C    0.25621   0.51070   0.04331   1.000
    C564    C    0.49378   0.26071   0.29331   1.000
    C565    C    0.50622   0.73929   0.29331   1.000
    C566    C    0.74379   0.98932   0.54331   1.000
    C567    C    0.75618   0.51070   0.54331   1.000
    C568    C    0.99381   0.76069   0.29331   1.000
    C569    C    0.00619   0.23931   0.29331   1.000
    C570    C    0.24382   0.48930   0.54331   1.000
    C571    C    0.25621   0.01068   0.54331   1.000
    C572    C    0.49378   0.76069   0.79331   1.000
    C573    C    0.50622   0.23931   0.79331   1.000
    C574    C    0.74379   0.48930   0.04331   1.000
    C575    C    0.75618   0.01068   0.04331   1.000
    C576    C    0.06417   0.26871   0.82540   1.000
    C577    C    0.93583   0.73129   0.82540   1.000
    C578    C    0.31419   0.98128   0.07540   1.000
    C579    C    0.18578   0.51870   0.07540   1.000
    C580    C    0.56420   0.26871   0.32540   1.000
    C581    C    0.43580   0.73129   0.32540   1.000
    C582    C    0.81422   0.98128   0.57540   1.000
    C583    C    0.68581   0.51870   0.57540   1.000
    C584    C    0.06417   0.76869   0.32540   1.000
    C585    C    0.93583   0.23131   0.32540   1.000
    C586    C    0.31419   0.48130   0.57540   1.000
    C587    C    0.18578   0.01872   0.57540   1.000
    C588    C    0.56420   0.76869   0.82540   1.000
    C589    C    0.43580   0.23131   0.82540   1.000
    C590    C    0.81422   0.48130   0.07540   1.000
    C591    C    0.68581   0.01872   0.07540   1.000
    H592    H    0.04998   0.25920   0.85689   1.000
    H593    H    0.95002   0.74080   0.85689   1.000
    H594    H    0.29999   0.99079   0.10689   1.000
    H595    H    0.19998   0.50919   0.10689   1.000
    H596    H    0.55001   0.25920   0.35689   1.000
    H597    H    0.44999   0.74080   0.35689   1.000
    H598    H    0.80002   0.99079   0.60689   1.000
    H599    H    0.70001   0.50919   0.60689   1.000
    H600    H    0.04998   0.75918   0.35689   1.000
    H601    H    0.95002   0.24082   0.35689   1.000
    H602    H    0.29999   0.49081   0.60689   1.000
    H603    H    0.19998   0.00921   0.60689   1.000
    H604    H    0.55001   0.75918   0.85689   1.000
    H605    H    0.44999   0.24082   0.85689   1.000
    H606    H    0.80002   0.49081   0.10689   1.000
    H607    H    0.70001   0.00921   0.10689   1.000
    H608    H    0.07903   0.30290   0.82501   1.000
    H609    H    0.92097   0.69710   0.82501   1.000
    H610    H    0.32898   0.94709   0.07501   1.000
    H611    H    0.17099   0.55289   0.07501   1.000
    H612    H    0.57900   0.30290   0.32501   1.000
    H613    H    0.42100   0.69710   0.32501   1.000
    H614    H    0.82901   0.94709   0.57501   1.000
    H615    H    0.67102   0.55289   0.57501   1.000
    H616    H    0.07903   0.80292   0.32501   1.000
    H617    H    0.92097   0.19708   0.32501   1.000
    H618    H    0.32898   0.44711   0.57501   1.000
    H619    H    0.17099   0.05291   0.57501   1.000
    H620    H    0.57900   0.80292   0.82501   1.000
    H621    H    0.42100   0.19708   0.82501   1.000
    H622    H    0.82901   0.44711   0.07501   1.000
    H623    H    0.67102   0.05291   0.07501   1.000
    H624    H    0.10880   0.24911   0.81478   1.000
    H625    H    0.89120   0.75089   0.81478   1.000
    H626    H    0.35881   0.00088   0.06478   1.000
    H627    H    0.14122   0.49910   0.06478   1.000
    H628    H    0.60883   0.24911   0.31478   1.000
    H629    H    0.39117   0.75089   0.31478   1.000
    H630    H    0.85878   0.00088   0.56478   1.000
    H631    H    0.64119   0.49910   0.56478   1.000
    H632    H    0.10880   0.74909   0.31478   1.000
    H633    H    0.89120   0.25091   0.31478   1.000
    H634    H    0.35881   0.50090   0.56478   1.000
    H635    H    0.14122   0.99912   0.56478   1.000
    H636    H    0.60883   0.74909   0.81478   1.000
    H637    H    0.39117   0.25091   0.81478   1.000
    H638    H    0.85878   0.50090   0.06478   1.000
    H639    H    0.64119   0.99912   0.06478   1.000
    O640    O    0.75660   0.11090   0.78121   1.000
    O641    O    0.24340   0.88910   0.78121   1.000
    O642    O    0.00662   0.13909   0.03121   1.000
    O643    O    0.49341   0.36089   0.03121   1.000
    O644    O    0.25657   0.11090   0.28121   1.000
    O645    O    0.74343   0.88910   0.28121   1.000
    O646    O    0.50659   0.13909   0.53121   1.000
    O647    O    0.99338   0.36089   0.53121   1.000
    O648    O    0.75660   0.61088   0.28121   1.000
    O649    O    0.24340   0.38912   0.28121   1.000
    O650    O    0.00662   0.63911   0.53121   1.000
    O651    O    0.49341   0.86091   0.53121   1.000
    O652    O    0.25657   0.61088   0.78121   1.000
    O653    O    0.74343   0.38912   0.78121   1.000
    O654    O    0.50659   0.63911   0.03121   1.000
    O655    O    0.99338   0.86091   0.03121   1.000
    O656    O    0.86762   0.14672   0.75621   1.000
    O657    O    0.13238   0.85328   0.75621   1.000
    O658    O    0.11758   0.10331   0.00621   1.000
    O659    O    0.38239   0.39671   0.00621   1.000
    O660    O    0.36759   0.14672   0.25621   1.000
    O661    O    0.63241   0.85328   0.25621   1.000
    O662    O    0.61761   0.10331   0.50621   1.000
    O663    O    0.88242   0.39671   0.50621   1.000
    O664    O    0.86762   0.64670   0.25621   1.000
    O665    O    0.13238   0.35330   0.25621   1.000
    O666    O    0.11758   0.60329   0.50621   1.000
    O667    O    0.38239   0.89669   0.50621   1.000
    O668    O    0.36759   0.64670   0.75621   1.000
    O669    O    0.63241   0.35330   0.75621   1.000
    O670    O    0.61761   0.60329   0.00621   1.000
    O671    O    0.88242   0.89669   0.00621   1.000
    C672    C    0.82282   0.11101   0.76428   1.000
    C673    C    0.17718   0.88899   0.76428   1.000
    C674    C    0.07277   0.13901   0.01428   1.000
    C675    C    0.42720   0.36100   0.01428   1.000
    C676    C    0.32279   0.11101   0.26428   1.000
    C677    C    0.67721   0.88899   0.26428   1.000
    C678    C    0.57280   0.13901   0.51428   1.000
    C679    C    0.92723   0.36100   0.51428   1.000
    C680    C    0.82282   0.61099   0.26428   1.000
    C681    C    0.17718   0.38901   0.26428   1.000
    C682    C    0.07277   0.63900   0.51428   1.000
    C683    C    0.42720   0.86099   0.51428   1.000
    C684    C    0.32279   0.61099   0.76428   1.000
    C685    C    0.67721   0.38901   0.76428   1.000
    C686    C    0.57280   0.63900   0.01428   1.000
    C687    C    0.92723   0.86099   0.01428   1.000
    C688    C    0.85770   0.06348   0.74630   1.000
    C689    C    0.14230   0.93652   0.74630   1.000
    C690    C    0.10772   0.18651   0.99630   1.000
    C691    C    0.39231   0.31351   0.99630   1.000
    C692    C    0.35767   0.06348   0.24630   1.000
    C693    C    0.64233   0.93652   0.24630   1.000
    C694    C    0.60769   0.18651   0.49630   1.000
    C695    C    0.89228   0.31351   0.49630   1.000
    C696    C    0.85770   0.56350   0.24630   1.000
    C697    C    0.14230   0.43650   0.24630   1.000
    C698    C    0.10772   0.68649   0.49630   1.000
    C699    C    0.39231   0.81349   0.49630   1.000
    C700    C    0.35767   0.56350   0.74630   1.000
    C701    C    0.64233   0.43650   0.74630   1.000
    C702    C    0.60769   0.68649   0.99630   1.000
    C703    C    0.89228   0.81349   0.99630   1.000
    H704    H    0.91478   0.06691   0.74281   1.000
    H705    H    0.08522   0.93309   0.74281   1.000
    H706    H    0.16479   0.18312   0.99281   1.000
    H707    H    0.33518   0.31690   0.99281   1.000
    H708    H    0.41481   0.06691   0.24281   1.000
    H709    H    0.58519   0.93309   0.24281   1.000
    H710    H    0.66482   0.18312   0.49281   1.000
    H711    H    0.83521   0.31690   0.49281   1.000
    H712    H    0.91478   0.56689   0.24281   1.000
    H713    H    0.08522   0.43311   0.24281   1.000
    H714    H    0.16479   0.68310   0.49281   1.000
    H715    H    0.33518   0.81688   0.49281   1.000
    H716    H    0.41481   0.56689   0.74281   1.000
    H717    H    0.58519   0.43311   0.74281   1.000
    H718    H    0.66482   0.68310   0.99281   1.000
    H719    H    0.83521   0.81688   0.99281   1.000
    H720    H    0.83413   0.05571   0.71629   1.000
    H721    H    0.16587   0.94429   0.71629   1.000
    H722    H    0.08408   0.19428   0.96629   1.000
    H723    H    0.41589   0.30570   0.96629   1.000
    H724    H    0.33410   0.05571   0.21629   1.000
    H725    H    0.66590   0.94429   0.21629   1.000
    H726    H    0.58411   0.19428   0.46629   1.000
    H727    H    0.91592   0.30570   0.46629   1.000
    H728    H    0.83413   0.55569   0.21629   1.000
    H729    H    0.16587   0.44431   0.21629   1.000
    H730    H    0.08408   0.69430   0.46629   1.000
    H731    H    0.41589   0.80572   0.46629   1.000
    H732    H    0.33410   0.55569   0.71629   1.000
    H733    H    0.66590   0.44431   0.71629   1.000
    H734    H    0.58411   0.69430   0.96629   1.000
    H735    H    0.91592   0.80572   0.96629   1.000
    H736    H    0.84627   0.03751   0.76830   1.000
    H737    H    0.15373   0.96249   0.76830   1.000
    H738    H    0.09629   0.21248   0.01830   1.000
    H739    H    0.40368   0.28750   0.01830   1.000
    H740    H    0.34630   0.03751   0.26830   1.000
    H741    H    0.65370   0.96249   0.26830   1.000
    H742    H    0.59632   0.21248   0.51830   1.000
    H743    H    0.90371   0.28750   0.51830   1.000
    H744    H    0.84627   0.53749   0.26830   1.000
    H745    H    0.15373   0.46251   0.26830   1.000
    H746    H    0.09629   0.71250   0.51830   1.000
    H747    H    0.40368   0.78752   0.51830   1.000
    H748    H    0.34630   0.53749   0.76830   1.000
    H749    H    0.65370   0.46251   0.76830   1.000
    H750    H    0.59632   0.71250   0.01830   1.000
    H751    H    0.90371   0.78752   0.01830   1.000
    O752    O    0.73290   0.09970   0.88070   1.000
    O753    O    0.26710   0.90030   0.88070   1.000
    O754    O    0.98292   0.15029   0.13070   1.000
    O755    O    0.51711   0.34969   0.13070   1.000
    O756    O    0.23287   0.09970   0.38070   1.000
    O757    O    0.76713   0.90030   0.38070   1.000
    O758    O    0.48289   0.15029   0.63070   1.000
    O759    O    0.01708   0.34969   0.63070   1.000
    O760    O    0.73290   0.59968   0.38070   1.000
    O761    O    0.26710   0.40032   0.38070   1.000
    O762    O    0.98292   0.65031   0.63070   1.000
    O763    O    0.51711   0.84971   0.63070   1.000
    O764    O    0.23287   0.59968   0.88070   1.000
    O765    O    0.76713   0.40032   0.88070   1.000
    O766    O    0.48289   0.65031   0.13070   1.000
    O767    O    0.01708   0.84971   0.13070   1.000
    O768    O    0.77422   0.02789   0.90841   1.000
    O769    O    0.22578   0.97211   0.90841   1.000
    O770    O    0.02418   0.22210   0.15841   1.000
    O771    O    0.47579   0.27788   0.15841   1.000
    O772    O    0.27419   0.02789   0.40841   1.000
    O773    O    0.72581   0.97211   0.40841   1.000
    O774    O    0.52421   0.22210   0.65841   1.000
    O775    O    0.97582   0.27788   0.65841   1.000
    O776    O    0.77422   0.52791   0.40841   1.000
    O777    O    0.22578   0.47209   0.40841   1.000
    O778    O    0.02418   0.72212   0.65841   1.000
    O779    O    0.47579   0.77790   0.65841   1.000
    O780    O    0.27419   0.52791   0.90841   1.000
    O781    O    0.72581   0.47209   0.90841   1.000
    O782    O    0.52421   0.72212   0.15841   1.000
    O783    O    0.97582   0.77790   0.15841   1.000
    C784    C    0.73092   0.05401   0.88101   1.000
    C785    C    0.26908   0.94599   0.88101   1.000
    C786    C    0.98087   0.19601   0.13101   1.000
    C787    C    0.51910   0.30401   0.13101   1.000
    C788    C    0.23089   0.05401   0.38101   1.000
    C789    C    0.76911   0.94599   0.38101   1.000
    C790    C    0.48090   0.19601   0.63101   1.000
    C791    C    0.01913   0.30401   0.63101   1.000
    C792    C    0.73092   0.55400   0.38101   1.000
    C793    C    0.26908   0.44600   0.38101   1.000
    C794    C    0.98087   0.69599   0.63101   1.000
    C795    C    0.51910   0.80399   0.63101   1.000
    C796    C    0.23089   0.55400   0.88101   1.000
    C797    C    0.76911   0.44600   0.88101   1.000
    C798    C    0.48090   0.69599   0.13101   1.000
    C799    C    0.01913   0.80399   0.13101   1.000
    C800    C    0.67751   0.02509   0.84822   1.000
    C801    C    0.32249   0.97491   0.84822   1.000
    C802    C    0.92753   0.22490   0.09822   1.000
    C803    C    0.57250   0.27508   0.09822   1.000
    C804    C    0.17748   0.02509   0.34822   1.000
    C805    C    0.82252   0.97491   0.34822   1.000
    C806    C    0.42750   0.22490   0.59822   1.000
    C807    C    0.07247   0.27508   0.59822   1.000
    C808    C    0.67751   0.52511   0.34822   1.000
    C809    C    0.32249   0.47489   0.34822   1.000
    C810    C    0.92753   0.72492   0.59822   1.000
    C811    C    0.57250   0.77510   0.59822   1.000
    C812    C    0.17748   0.52511   0.84822   1.000
    C813    C    0.82252   0.47489   0.84822   1.000
    C814    C    0.42750   0.72492   0.09822   1.000
    C815    C    0.07247   0.77510   0.09822   1.000
    H816    H    0.67348   0.99171   0.85911   1.000
    H817    H    0.32652   0.00829   0.85911   1.000
    H818    H    0.92350   0.25832   0.10911   1.000
    H819    H    0.57647   0.24170   0.10911   1.000
    H820    H    0.17351   0.99171   0.35911   1.000
    H821    H    0.82649   0.00829   0.35911   1.000
    H822    H    0.42353   0.25832   0.60911   1.000
    H823    H    0.07650   0.24170   0.60911   1.000
    H824    H    0.67348   0.49169   0.35911   1.000
    H825    H    0.32652   0.50831   0.35911   1.000
    H826    H    0.92350   0.75830   0.60911   1.000
    H827    H    0.57647   0.74168   0.60911   1.000
    H828    H    0.17351   0.49169   0.85911   1.000
    H829    H    0.82649   0.50831   0.85911   1.000
    H830    H    0.42353   0.75830   0.10911   1.000
    H831    H    0.07650   0.74168   0.10911   1.000
    H832    H    0.69989   0.02550   0.81701   1.000
    H833    H    0.30011   0.97450   0.81701   1.000
    H834    H    0.94990   0.22449   0.06701   1.000
    H835    H    0.55013   0.27549   0.06701   1.000
    H836    H    0.19992   0.02550   0.31701   1.000
    H837    H    0.80008   0.97450   0.31701   1.000
    H838    H    0.44987   0.22449   0.56701   1.000
    H839    H    0.05010   0.27549   0.56701   1.000
    H840    H    0.69989   0.52551   0.31701   1.000
    H841    H    0.30011   0.47449   0.31701   1.000
    H842    H    0.94990   0.72451   0.56701   1.000
    H843    H    0.55013   0.77551   0.56701   1.000
    H844    H    0.19992   0.52551   0.81701   1.000
    H845    H    0.80008   0.47449   0.81701   1.000
    H846    H    0.44987   0.72451   0.06701   1.000
    H847    H    0.05010   0.77551   0.06701   1.000
    H848    H    0.62489   0.03968   0.84769   1.000
    H849    H    0.37511   0.96032   0.84769   1.000
    H850    H    0.87490   0.21031   0.09769   1.000
    H851    H    0.62513   0.28971   0.09769   1.000
    H852    H    0.12492   0.03968   0.34769   1.000
    H853    H    0.87508   0.96032   0.34769   1.000
    H854    H    0.37487   0.21031   0.59769   1.000
    H855    H    0.12510   0.28971   0.59769   1.000
    H856    H    0.62489   0.53970   0.34769   1.000
    H857    H    0.37511   0.46030   0.34769   1.000
    H858    H    0.87490   0.71029   0.59769   1.000
    H859    H    0.62513   0.78969   0.59769   1.000
    H860    H    0.12492   0.53970   0.84769   1.000
    H861    H    0.87508   0.46030   0.84769   1.000
    H862    H    0.37487   0.71029   0.09769   1.000
    H863    H    0.12510   0.78969   0.09769   1.000
