data_crystal
 
_cell_length_a    16.62700
_cell_length_b    27.14100
_cell_length_c    28.35600
_cell_angle_alpha 90.00000
_cell_angle_beta  90.00000
_cell_angle_gamma 90.00000
 
_symmetry_space_group_name_Hall 'P 1'
_symmetry_space_group_name_H-M  'P 1'
 
loop_
_symmetry_equiv_pos_as_xyz
 'x,y,z' 
 
loop_
_atom_site_label
_atom_site_type_symbol
_atom_site_fract_x
_atom_site_fract_y
_atom_site_fract_z
_atom_site_charge
Zn         Zn      0.84092   0.21296   0.77814   0.00000
Zn         Zn      0.15908   0.78704   0.77814   0.00000
Zn         Zn      0.09094   0.03703   0.02814   0.00000
Zn         Zn      0.40909   0.46299   0.02814   0.00000
Zn         Zn      0.84092   0.71298   0.27814   0.00000
Zn         Zn      0.15908   0.28702   0.27814   0.00000
Zn         Zn      0.09094   0.53701   0.52814   0.00000
Zn         Zn      0.40909   0.96297   0.52814   0.00000
Zn         Zn      0.34089   0.21296   0.27814   0.00000
Zn         Zn      0.65911   0.78704   0.27814   0.00000
Zn         Zn      0.59091   0.03703   0.52814   0.00000
Zn         Zn      0.90906   0.46299   0.52814   0.00000
Zn         Zn      0.34089   0.71298   0.77814   0.00000
Zn         Zn      0.65911   0.28702   0.77814   0.00000
Zn         Zn      0.59091   0.53701   0.02814   0.00000
Zn         Zn      0.90906   0.96297   0.02814   0.00000
Zn         Zn      0.69381   0.14867   0.83369   0.00000
Zn         Zn      0.30619   0.85133   0.83369   0.00000
Zn         Zn      0.94383   0.10132   0.08369   0.00000
Zn         Zn      0.55614   0.39866   0.08369   0.00000
Zn         Zn      0.69381   0.64869   0.33369   0.00000
Zn         Zn      0.30619   0.35131   0.33369   0.00000
Zn         Zn      0.94383   0.60134   0.58369   0.00000
Zn         Zn      0.55614   0.89868   0.58369   0.00000
Zn         Zn      0.19384   0.14867   0.33369   0.00000
Zn         Zn      0.80616   0.85133   0.33369   0.00000
Zn         Zn      0.44386   0.10132   0.58369   0.00000
Zn         Zn      0.05617   0.39866   0.58369   0.00000
Zn         Zn      0.19384   0.64869   0.83369   0.00000
Zn         Zn      0.80616   0.35131   0.83369   0.00000
Zn         Zn      0.44386   0.60134   0.08369   0.00000
Zn         Zn      0.05617   0.89868   0.08369   0.00000
Zn         Zn      0.59728   0.19447   0.70705   0.00000
Zn         Zn      0.40272   0.80553   0.70705   0.00000
Zn         Zn      0.84730   0.05552   0.95705   0.00000
Zn         Zn      0.65273   0.44446   0.95705   0.00000
Zn         Zn      0.59728   0.69445   0.20705   0.00000
Zn         Zn      0.40272   0.30555   0.20705   0.00000
Zn         Zn      0.84730   0.55554   0.45705   0.00000
Zn         Zn      0.65273   0.94448   0.45705   0.00000
Zn         Zn      0.09731   0.19447   0.20705   0.00000
Zn         Zn      0.90269   0.80553   0.20705   0.00000
Zn         Zn      0.34727   0.05552   0.45705   0.00000
Zn         Zn      0.15270   0.44446   0.45705   0.00000
Zn         Zn      0.09731   0.69445   0.70705   0.00000
Zn         Zn      0.90269   0.30555   0.70705   0.00000
Zn         Zn      0.34727   0.55554   0.95705   0.00000
Zn         Zn      0.15270   0.94448   0.95705   0.00000
O          O       0.76388   0.20821   0.82861   0.00000
O          O       0.23612   0.79179   0.82861   0.00000
O          O       0.01389   0.04178   0.07861   0.00000
O          O       0.48608   0.45820   0.07861   0.00000
O          O       0.76388   0.70819   0.32861   0.00000
O          O       0.23612   0.29181   0.32861   0.00000
O          O       0.01389   0.54180   0.57861   0.00000
O          O       0.48608   0.95822   0.57861   0.00000
O          O       0.26391   0.20821   0.32861   0.00000
O          O       0.73609   0.79179   0.32861   0.00000
O          O       0.51392   0.04178   0.57861   0.00000
O          O       0.98611   0.45820   0.57861   0.00000
O          O       0.26391   0.70819   0.82861   0.00000
O          O       0.73609   0.29181   0.82861   0.00000
O          O       0.51392   0.54180   0.07861   0.00000
O          O       0.98611   0.95822   0.07861   0.00000
N          N       0.63992   0.19760   0.88320   0.00000
N          N       0.36008   0.80240   0.88320   0.00000
N          N       0.88988   0.05239   0.13320   0.00000
N          N       0.61009   0.44759   0.13320   0.00000
N          N       0.63992   0.69762   0.38320   0.00000
N          N       0.36008   0.30238   0.38320   0.00000
N          N       0.88988   0.55241   0.63320   0.00000
N          N       0.61009   0.94761   0.63320   0.00000
N          N       0.13989   0.19760   0.38320   0.00000
N          N       0.86011   0.80240   0.38320   0.00000
N          N       0.38991   0.05239   0.63320   0.00000
N          N       0.11012   0.44759   0.63320   0.00000
N          N       0.13989   0.69762   0.88320   0.00000
N          N       0.86011   0.30238   0.88320   0.00000
N          N       0.38991   0.55241   0.13320   0.00000
N          N       0.11012   0.94761   0.13320   0.00000
C          C       0.57611   0.18761   0.91099   0.00000
C          C       0.42389   0.81239   0.91099   0.00000
C          C       0.82613   0.06241   0.16099   0.00000
C          C       0.67390   0.43760   0.16099   0.00000
C          C       0.57611   0.68759   0.41099   0.00000
C          C       0.42389   0.31241   0.41099   0.00000
C          C       0.82613   0.56240   0.66099   0.00000
C          C       0.67390   0.93759   0.66099   0.00000
C          C       0.07608   0.18761   0.41099   0.00000
C          C       0.92392   0.81239   0.41099   0.00000
C          C       0.32610   0.06241   0.66099   0.00000
C          C       0.17387   0.43760   0.66099   0.00000
C          C       0.07608   0.68759   0.91099   0.00000
C          C       0.92392   0.31241   0.91099   0.00000
C          C       0.32610   0.56240   0.16099   0.00000
C          C       0.17387   0.93759   0.16099   0.00000
H          H       0.55109   0.15711   0.90810   0.00000
H          H       0.44891   0.84289   0.90810   0.00000
H          H       0.80111   0.09289   0.15810   0.00000
H          H       0.69892   0.40710   0.15810   0.00000
H          H       0.55109   0.65709   0.40810   0.00000
H          H       0.44891   0.34291   0.40810   0.00000
H          H       0.80111   0.59290   0.65810   0.00000
H          H       0.69892   0.90711   0.65810   0.00000
H          H       0.05112   0.15711   0.40810   0.00000
H          H       0.94888   0.84289   0.40810   0.00000
H          H       0.30108   0.09289   0.65810   0.00000
H          H       0.19889   0.40710   0.65810   0.00000
H          H       0.05112   0.65709   0.90810   0.00000
H          H       0.94888   0.34291   0.90810   0.00000
H          H       0.30108   0.59290   0.15810   0.00000
H          H       0.19889   0.90711   0.15810   0.00000
C          C       0.54760   0.21941   0.94241   0.00000
C          C       0.45240   0.78059   0.94241   0.00000
C          C       0.79762   0.03062   0.19241   0.00000
C          C       0.70241   0.46940   0.19241   0.00000
C          C       0.54760   0.71939   0.44241   0.00000
C          C       0.45240   0.28061   0.44241   0.00000
C          C       0.79762   0.53060   0.69241   0.00000
C          C       0.70241   0.96938   0.69241   0.00000
C          C       0.04757   0.21941   0.44241   0.00000
C          C       0.95243   0.78059   0.44241   0.00000
C          C       0.29759   0.03062   0.69241   0.00000
C          C       0.20238   0.46940   0.69241   0.00000
C          C       0.04757   0.71939   0.94241   0.00000
C          C       0.95243   0.28061   0.94241   0.00000
C          C       0.29759   0.53060   0.19241   0.00000
C          C       0.20238   0.96938   0.19241   0.00000
H          H       0.50250   0.21149   0.96029   0.00000
H          H       0.49750   0.78851   0.96029   0.00000
H          H       0.75251   0.03850   0.21029   0.00000
H          H       0.74752   0.46152   0.21029   0.00000
H          H       0.50250   0.71151   0.46029   0.00000
H          H       0.49750   0.28849   0.46029   0.00000
H          H       0.75251   0.53848   0.71029   0.00000
H          H       0.74752   0.96150   0.71029   0.00000
H          H       0.00253   0.21149   0.46029   0.00000
H          H       0.99747   0.78851   0.46029   0.00000
H          H       0.25248   0.03850   0.71029   0.00000
H          H       0.24749   0.46152   0.71029   0.00000
H          H       0.00253   0.71151   0.96029   0.00000
H          H       0.99747   0.28849   0.96029   0.00000
H          H       0.25248   0.53848   0.21029   0.00000
H          H       0.24749   0.96150   0.21029   0.00000
C          C       0.58658   0.26561   0.94841   0.00000
C          C       0.41342   0.73439   0.94841   0.00000
C          C       0.83659   0.98441   0.19841   0.00000
C          C       0.66338   0.51560   0.19841   0.00000
C          C       0.58658   0.76559   0.44841   0.00000
C          C       0.41342   0.23441   0.44841   0.00000
C          C       0.83659   0.48440   0.69841   0.00000
C          C       0.66338   0.01559   0.69841   0.00000
C          C       0.08661   0.26561   0.44841   0.00000
C          C       0.91339   0.73439   0.44841   0.00000
C          C       0.33662   0.98441   0.69841   0.00000
C          C       0.16341   0.51560   0.69841   0.00000
C          C       0.08661   0.76559   0.94841   0.00000
C          C       0.91339   0.23441   0.94841   0.00000
C          C       0.33662   0.48440   0.19841   0.00000
C          C       0.16341   0.01559   0.19841   0.00000
H          H       0.56829   0.28801   0.97080   0.00000
H          H       0.43171   0.71199   0.97080   0.00000
H          H       0.81831   0.96201   0.22080   0.00000
H          H       0.68172   0.53801   0.22080   0.00000
H          H       0.56829   0.78800   0.47080   0.00000
H          H       0.43171   0.21200   0.47080   0.00000
H          H       0.81831   0.46199   0.72080   0.00000
H          H       0.68172   0.03799   0.72080   0.00000
H          H       0.06832   0.28801   0.47080   0.00000
H          H       0.93168   0.71199   0.47080   0.00000
H          H       0.31828   0.96201   0.72080   0.00000
H          H       0.18169   0.53801   0.72080   0.00000
H          H       0.06832   0.78800   0.97080   0.00000
H          H       0.93168   0.21200   0.97080   0.00000
H          H       0.31828   0.46199   0.22080   0.00000
H          H       0.18169   0.03799   0.22080   0.00000
C          C       0.65063   0.27619   0.92111   0.00000
C          C       0.34937   0.72381   0.92111   0.00000
C          C       0.90058   0.97380   0.17111   0.00000
C          C       0.59939   0.52621   0.17111   0.00000
C          C       0.65063   0.77621   0.42111   0.00000
C          C       0.34937   0.22379   0.42111   0.00000
C          C       0.90058   0.47379   0.67111   0.00000
C          C       0.59939   0.02620   0.67111   0.00000
C          C       0.15060   0.27619   0.42111   0.00000
C          C       0.84940   0.72381   0.42111   0.00000
C          C       0.40061   0.97380   0.67111   0.00000
C          C       0.09942   0.52621   0.67111   0.00000
C          C       0.15060   0.77621   0.92111   0.00000
C          C       0.84940   0.22379   0.92111   0.00000
C          C       0.40061   0.47379   0.17111   0.00000
C          C       0.09942   0.02620   0.17111   0.00000
H          H       0.67649   0.30640   0.92330   0.00000
H          H       0.32351   0.69360   0.92330   0.00000
H          H       0.92651   0.94359   0.17330   0.00000
H          H       0.57352   0.55639   0.17330   0.00000
H          H       0.67649   0.80642   0.42330   0.00000
H          H       0.32351   0.19358   0.42330   0.00000
H          H       0.92651   0.44361   0.67330   0.00000
H          H       0.57352   0.05641   0.67330   0.00000
H          H       0.17652   0.30640   0.42330   0.00000
H          H       0.82348   0.69360   0.42330   0.00000
H          H       0.42648   0.94359   0.67330   0.00000
H          H       0.07349   0.55639   0.67330   0.00000
H          H       0.17652   0.80642   0.92330   0.00000
H          H       0.82348   0.19358   0.92330   0.00000
H          H       0.42648   0.44361   0.17330   0.00000
H          H       0.07349   0.05641   0.17330   0.00000
C          C       0.67721   0.23990   0.88898   0.00000
C          C       0.32279   0.76010   0.88898   0.00000
C          C       0.92723   0.01010   0.13898   0.00000
C          C       0.57280   0.48989   0.13898   0.00000
C          C       0.67721   0.73991   0.38898   0.00000
C          C       0.32279   0.26009   0.38898   0.00000
C          C       0.92723   0.51011   0.63898   0.00000
C          C       0.57280   0.98990   0.63898   0.00000
C          C       0.17718   0.23990   0.38898   0.00000
C          C       0.82282   0.76010   0.38898   0.00000
C          C       0.42720   0.01010   0.63898   0.00000
C          C       0.07277   0.48989   0.63898   0.00000
C          C       0.17718   0.73991   0.88898   0.00000
C          C       0.82282   0.26009   0.88898   0.00000
C          C       0.42720   0.51011   0.13898   0.00000
C          C       0.07277   0.98990   0.13898   0.00000
C          C       0.74998   0.24999   0.85619   0.00000
C          C       0.25002   0.75001   0.85619   0.00000
C          C      -0.00000  -0.00000   0.10619   0.00000
C          C       0.49997   0.49998   0.10619   0.00000
C          C       0.74998   0.75001   0.35619   0.00000
C          C       0.25002   0.24999   0.35619   0.00000
C          C      -0.00000   0.50002   0.60619   0.00000
C          C       0.50003  -0.00000   0.60619   0.00000
O          O       0.81957   0.25519   0.72531   0.00000
O          O       0.18043   0.74481   0.72531   0.00000
O          O       0.06959   0.99480   0.97531   0.00000
O          O       0.43038   0.50521   0.97531   0.00000
O          O       0.81957   0.75520   0.22531   0.00000
O          O       0.18043   0.24480   0.22531   0.00000
O          O       0.06959   0.49479   0.47531   0.00000
O          O       0.43038   0.00520   0.47531   0.00000
O          O       0.31960   0.25519   0.22531   0.00000
O          O       0.68040   0.74481   0.22531   0.00000
O          O       0.56962   0.99480   0.47531   0.00000
O          O       0.93041   0.50521   0.47531   0.00000
O          O       0.31960   0.75520   0.72531   0.00000
O          O       0.68040   0.24480   0.72531   0.00000
O          O       0.56962   0.49479   0.97531   0.00000
O          O       0.93041   0.00520   0.97531   0.00000
N          N       0.69291   0.17579   0.66169   0.00000
N          N       0.30709   0.82421   0.66169   0.00000
N          N       0.94292   0.07421   0.91169   0.00000
N          N       0.55711   0.42581   0.91169   0.00000
N          N       0.69291   0.67580   0.16169   0.00000
N          N       0.30709   0.32420   0.16169   0.00000
N          N       0.94292   0.57419   0.41169   0.00000
N          N       0.55711   0.92579   0.41169   0.00000
N          N       0.19288   0.17579   0.16169   0.00000
N          N       0.80712   0.82421   0.16169   0.00000
N          N       0.44289   0.07421   0.41169   0.00000
N          N       0.05708   0.42581   0.41169   0.00000
N          N       0.19288   0.67580   0.66169   0.00000
N          N       0.80712   0.32420   0.66169   0.00000
N          N       0.44289   0.57419   0.91169   0.00000
N          N       0.05708   0.92579   0.91169   0.00000
C          C       0.69327   0.13559   0.63228   0.00000
C          C       0.30673   0.86441   0.63228   0.00000
C          C       0.94329   0.11440   0.88228   0.00000
C          C       0.55668   0.38562   0.88228   0.00000
C          C       0.69327   0.63561   0.13228   0.00000
C          C       0.30673   0.36439   0.13228   0.00000
C          C       0.94329   0.61438   0.38228   0.00000
C          C       0.55668   0.88560   0.38228   0.00000
C          C       0.19330   0.13559   0.13228   0.00000
C          C       0.80670   0.86441   0.13228   0.00000
C          C       0.44332   0.11440   0.38228   0.00000
C          C       0.05671   0.38562   0.38228   0.00000
C          C       0.19330   0.63561   0.63228   0.00000
C          C       0.80670   0.36439   0.63228   0.00000
C          C       0.44332   0.61438   0.88228   0.00000
C          C       0.05671   0.88560   0.88228   0.00000
H          H       0.64738   0.11628   0.62921   0.00000
H          H       0.35262   0.88372   0.62921   0.00000
H          H       0.89740   0.13371   0.87921   0.00000
H          H       0.60257   0.36631   0.87921   0.00000
H          H       0.64738   0.61630   0.12921   0.00000
H          H       0.35262   0.38370   0.12921   0.00000
H          H       0.89740   0.63369   0.37921   0.00000
H          H       0.60257   0.86629   0.37921   0.00000
H          H       0.14741   0.11628   0.12921   0.00000
H          H       0.85259   0.88372   0.12921   0.00000
H          H       0.39743   0.13371   0.37921   0.00000
H          H       0.10260   0.36631   0.37921   0.00000
H          H       0.14741   0.61630   0.62921   0.00000
H          H       0.85259   0.38370   0.62921   0.00000
H          H       0.39743   0.63369   0.87921   0.00000
H          H       0.10260   0.86629   0.87921   0.00000
C          C       0.75871   0.12461   0.60851   0.00000
C          C       0.24129   0.87539   0.60851   0.00000
C          C       0.00872   0.12538   0.85851   0.00000
C          C       0.49131   0.37460   0.85851   0.00000
C          C       0.75871   0.62459   0.10851   0.00000
C          C       0.24129   0.37541   0.10851   0.00000
C          C       0.00872   0.62540   0.35851   0.00000
C          C       0.49131   0.87462   0.35851   0.00000
C          C       0.25868   0.12461   0.10851   0.00000
C          C       0.74132   0.87539   0.10851   0.00000
C          C       0.50869   0.12538   0.35851   0.00000
C          C       0.99128   0.37460   0.35851   0.00000
C          C       0.25868   0.62459   0.60851   0.00000
C          C       0.74132   0.37541   0.60851   0.00000
C          C       0.50869   0.62540   0.85851   0.00000
C          C       0.99128   0.87462   0.85851   0.00000
H          H       0.75979   0.09569   0.59081   0.00000
H          H       0.24021   0.90431   0.59081   0.00000
H          H       0.00980   0.15431   0.84081   0.00000
H          H       0.49023   0.34571   0.84081   0.00000
H          H       0.75979   0.59570   0.09081   0.00000
H          H       0.24021   0.40430   0.09081   0.00000
H          H       0.00980   0.65429   0.34081   0.00000
H          H       0.49023   0.84569   0.34081   0.00000
H          H       0.25982   0.09569   0.09081   0.00000
H          H       0.74018   0.90431   0.09081   0.00000
H          H       0.50977   0.15431   0.34081   0.00000
H          H       0.99020   0.34571   0.34081   0.00000
H          H       0.25982   0.59570   0.59081   0.00000
H          H       0.74018   0.40430   0.59081   0.00000
H          H       0.50977   0.65429   0.84081   0.00000
H          H       0.99020   0.84569   0.84081   0.00000
C          C       0.83028   0.15659   0.60901   0.00000
C          C       0.16972   0.84341   0.60901   0.00000
C          C       0.08029   0.09340   0.85901   0.00000
C          C       0.41968   0.40662   0.85901   0.00000
C          C       0.83028   0.65661   0.10901   0.00000
C          C       0.16972   0.34339   0.10901   0.00000
C          C       0.08029   0.59338   0.35901   0.00000
C          C       0.41968   0.90660   0.35901   0.00000
C          C       0.33031   0.15659   0.10901   0.00000
C          C       0.66969   0.84341   0.10901   0.00000
C          C       0.58032   0.09340   0.35901   0.00000
C          C       0.91971   0.40662   0.35901   0.00000
C          C       0.33031   0.65661   0.60901   0.00000
C          C       0.66969   0.34339   0.60901   0.00000
C          C       0.58032   0.59338   0.85901   0.00000
C          C       0.91971   0.90660   0.85901   0.00000
H          H       0.87460   0.15121   0.58972   0.00000
H          H       0.12540   0.84879   0.58972   0.00000
H          H       0.12462   0.09882   0.83972   0.00000
H          H       0.37541   0.40120   0.83972   0.00000
H          H       0.87460   0.65119   0.08972   0.00000
H          H       0.12540   0.34881   0.08972   0.00000
H          H       0.12462   0.59880   0.33972   0.00000
H          H       0.37541   0.90118   0.33972   0.00000
H          H       0.37457   0.15121   0.08972   0.00000
H          H       0.62543   0.84879   0.08972   0.00000
H          H       0.62459   0.09882   0.33972   0.00000
H          H       0.87538   0.40120   0.33972   0.00000
H          H       0.37457   0.65119   0.58972   0.00000
H          H       0.62543   0.34881   0.58972   0.00000
H          H       0.62459   0.59880   0.83972   0.00000
H          H       0.87538   0.90118   0.83972   0.00000
C          C       0.82613   0.19568   0.64110   0.00000
C          C       0.17387   0.80432   0.64110   0.00000
C          C       0.07608   0.05431   0.89110   0.00000
C          C       0.42389   0.44571   0.89110   0.00000
C          C       0.82613   0.69570   0.14110   0.00000
C          C       0.17387   0.30430   0.14110   0.00000
C          C       0.07608   0.55429   0.39110   0.00000
C          C       0.42389   0.94569   0.39110   0.00000
C          C       0.32610   0.19568   0.14110   0.00000
C          C       0.67390   0.80432   0.14110   0.00000
C          C       0.57611   0.05431   0.39110   0.00000
C          C       0.92392   0.44571   0.39110   0.00000
C          C       0.32610   0.69570   0.64110   0.00000
C          C       0.67390   0.30430   0.64110   0.00000
C          C       0.57611   0.55429   0.89110   0.00000
C          C       0.92392   0.94569   0.89110   0.00000
H          H       0.87117   0.21539   0.64568   0.00000
H          H       0.12883   0.78461   0.64568   0.00000
H          H       0.12119   0.03460   0.89568   0.00000
H          H       0.37878   0.46538   0.89568   0.00000
H          H       0.87117   0.71541   0.14568   0.00000
H          H       0.12883   0.28459   0.14568   0.00000
H          H       0.12119   0.53462   0.39568   0.00000
H          H       0.37878   0.96540   0.39568   0.00000
H          H       0.37120   0.21539   0.14568   0.00000
H          H       0.62880   0.78461   0.14568   0.00000
H          H       0.62122   0.03460   0.39568   0.00000
H          H       0.87881   0.46538   0.39568   0.00000
H          H       0.37120   0.71541   0.64568   0.00000
H          H       0.62880   0.28459   0.64568   0.00000
H          H       0.62122   0.53462   0.89568   0.00000
H          H       0.87881   0.96540   0.89568   0.00000
C          C       0.75810   0.20548   0.66550   0.00000
C          C       0.24190   0.79452   0.66550   0.00000
C          C       0.00812   0.04451   0.91550   0.00000
C          C       0.49191   0.45551   0.91550   0.00000
C          C       0.75810   0.70550   0.16550   0.00000
C          C       0.24190   0.29450   0.16550   0.00000
C          C       0.00812   0.54449   0.41550   0.00000
C          C       0.49191   0.95549   0.41550   0.00000
C          C       0.25807   0.20548   0.16550   0.00000
C          C       0.74193   0.79452   0.16550   0.00000
C          C       0.50809   0.04451   0.41550   0.00000
C          C       0.99188   0.45551   0.41550   0.00000
C          C       0.25807   0.70550   0.66550   0.00000
C          C       0.74193   0.29450   0.66550   0.00000
C          C       0.50809   0.54449   0.91550   0.00000
C          C       0.99188   0.95549   0.91550   0.00000
C          C       0.74998   0.24999   0.69759   0.00000
C          C       0.25002   0.75001   0.69759   0.00000
C          C      -0.00000  -0.00000   0.94759   0.00000
C          C       0.50003   0.50002   0.94759   0.00000
C          C       0.74998   0.75001   0.19759   0.00000
C          C       0.25002   0.24999   0.19759   0.00000
C          C      -0.00000   0.49998   0.44759   0.00000
C          C       0.49997  -0.00000   0.44759   0.00000
O          O       0.58038   0.12649   0.73279   0.00000
O          O       0.41962   0.87351   0.73279   0.00000
O          O       0.83040   0.12350   0.98279   0.00000
O          O       0.66957   0.37652   0.98279   0.00000
O          O       0.58038   0.62651   0.23279   0.00000
O          O       0.41962   0.37349   0.23279   0.00000
O          O       0.83040   0.62348   0.48279   0.00000
O          O       0.66957   0.87650   0.48279   0.00000
O          O       0.08041   0.12649   0.23279   0.00000
O          O       0.91959   0.87351   0.23279   0.00000
O          O       0.33043   0.12350   0.48279   0.00000
O          O       0.16960   0.37652   0.48279   0.00000
O          O       0.08041   0.62651   0.73279   0.00000
O          O       0.91959   0.37349   0.73279   0.00000
O          O       0.33043   0.62348   0.98279   0.00000
O          O       0.16960   0.87650   0.98279   0.00000
O          O       0.58700   0.12649   0.81112   0.00000
O          O       0.41300   0.87351   0.81112   0.00000
O          O       0.83701   0.12350   0.06112   0.00000
O          O       0.66302   0.37652   0.06112   0.00000
O          O       0.58700   0.62651   0.31112   0.00000
O          O       0.41300   0.37349   0.31112   0.00000
O          O       0.83701   0.62348   0.56112   0.00000
O          O       0.66302   0.87650   0.56112   0.00000
O          O       0.08703   0.12649   0.31112   0.00000
O          O       0.91297   0.87351   0.31112   0.00000
O          O       0.33698   0.12350   0.56112   0.00000
O          O       0.16299   0.37652   0.56112   0.00000
O          O       0.08703   0.62651   0.81112   0.00000
O          O       0.91297   0.37349   0.81112   0.00000
O          O       0.33698   0.62348   0.06112   0.00000
O          O       0.16299   0.87650   0.06112   0.00000
C          C       0.55909   0.11499   0.77222   0.00000
C          C       0.44091   0.88501   0.77222   0.00000
C          C       0.80911   0.13500   0.02222   0.00000
C          C       0.69092   0.36498   0.02222   0.00000
C          C       0.55909   0.61501   0.27222   0.00000
C          C       0.44091   0.38499   0.27222   0.00000
C          C       0.80911   0.63502   0.52222   0.00000
C          C       0.69092   0.86500   0.52222   0.00000
C          C       0.05912   0.11499   0.27222   0.00000
C          C       0.94088   0.88501   0.27222   0.00000
C          C       0.30908   0.13500   0.52222   0.00000
C          C       0.19089   0.36498   0.52222   0.00000
C          C       0.05912   0.61501   0.77222   0.00000
C          C       0.94088   0.38499   0.77222   0.00000
C          C       0.30908   0.63502   0.02222   0.00000
C          C       0.19089   0.86500   0.02222   0.00000
C          C       0.48872   0.07829   0.77522   0.00000
C          C       0.51128   0.92171   0.77522   0.00000
C          C       0.73868   0.17170   0.02522   0.00000
C          C       0.76129   0.32829   0.02522   0.00000
C          C       0.48872   0.57831   0.27522   0.00000
C          C       0.51128   0.42169   0.27522   0.00000
C          C       0.73868   0.67171   0.52522   0.00000
C          C       0.76129   0.82830   0.52522   0.00000
C          C       0.98869   0.07829   0.27522   0.00000
C          C       0.01131   0.92171   0.27522   0.00000
C          C       0.23871   0.17170   0.52522   0.00000
C          C       0.26132   0.32829   0.52522   0.00000
C          C       0.98869   0.57831   0.77522   0.00000
C          C       0.01131   0.42169   0.77522   0.00000
C          C       0.23871   0.67171   0.02522   0.00000
C          C       0.26132   0.82830   0.02522   0.00000
H          H       0.50592   0.04919   0.79151   0.00000
H          H       0.49408   0.95081   0.79151   0.00000
H          H       0.75588   0.20080   0.04151   0.00000
H          H       0.74409   0.29922   0.04151   0.00000
H          H       0.50592   0.54921   0.29151   0.00000
H          H       0.49408   0.45079   0.29151   0.00000
H          H       0.75588   0.70078   0.54151   0.00000
H          H       0.74409   0.79920   0.54151   0.00000
H          H       0.00589   0.04919   0.29151   0.00000
H          H       0.99411   0.95081   0.29151   0.00000
H          H       0.25591   0.20080   0.54151   0.00000
H          H       0.24412   0.29922   0.54151   0.00000
H          H       0.00589   0.54921   0.79151   0.00000
H          H       0.99411   0.45079   0.79151   0.00000
H          H       0.25591   0.70078   0.04151   0.00000
H          H       0.24412   0.79920   0.04151   0.00000
H          H       0.47140   0.06971   0.74390   0.00000
H          H       0.52860   0.93029   0.74390   0.00000
H          H       0.72142   0.18032   0.99390   0.00000
H          H       0.77861   0.31970   0.99390   0.00000
H          H       0.47140   0.56969   0.24390   0.00000
H          H       0.52860   0.43031   0.24390   0.00000
H          H       0.72142   0.68030   0.49390   0.00000
H          H       0.77861   0.81968   0.49390   0.00000
H          H       0.97137   0.06971   0.24390   0.00000
H          H       0.02863   0.93029   0.24390   0.00000
H          H       0.22139   0.18032   0.49390   0.00000
H          H       0.27858   0.31970   0.49390   0.00000
H          H       0.97137   0.56969   0.74390   0.00000
H          H       0.02863   0.43031   0.74390   0.00000
H          H       0.22139   0.68030   0.99390   0.00000
H          H       0.27858   0.81968   0.99390   0.00000
H          H       0.44488   0.09322   0.79200   0.00000
H          H       0.55512   0.90678   0.79200   0.00000
H          H       0.69489   0.15681   0.04200   0.00000
H          H       0.80508   0.34321   0.04200   0.00000
H          H       0.44488   0.59320   0.29200   0.00000
H          H       0.55512   0.40680   0.29200   0.00000
H          H       0.69489   0.65679   0.54200   0.00000
H          H       0.80508   0.84319   0.54200   0.00000
H          H       0.94491   0.09322   0.29200   0.00000
H          H       0.05509   0.90678   0.29200   0.00000
H          H       0.19492   0.15681   0.54200   0.00000
H          H       0.30511   0.34321   0.54200   0.00000
H          H       0.94491   0.59320   0.79200   0.00000
H          H       0.05509   0.40680   0.79200   0.00000
H          H       0.19492   0.65679   0.04200   0.00000
H          H       0.30511   0.84319   0.04200   0.00000
O          O       0.98881   0.28109   0.75681   0.00000
O          O       0.01119   0.71891   0.75681   0.00000
O          O       0.23883   0.96890   0.00681   0.00000
O          O       0.26120   0.53112   0.00681   0.00000
O          O       0.98881   0.78111   0.25681   0.00000
O          O       0.01119   0.21889   0.25681   0.00000
O          O       0.23883   0.46888   0.50681   0.00000
O          O       0.26120   0.03110   0.50681   0.00000
O          O       0.48878   0.28109   0.25681   0.00000
O          O       0.51122   0.71891   0.25681   0.00000
O          O       0.73880   0.96890   0.50681   0.00000
O          O       0.76117   0.53112   0.50681   0.00000
O          O       0.48878   0.78111   0.75681   0.00000
O          O       0.51122   0.21889   0.75681   0.00000
O          O       0.73880   0.46888   0.00681   0.00000
O          O       0.76117   0.03110   0.00681   0.00000
O          O       0.94082   0.23172   0.81020   0.00000
O          O       0.05918   0.76828   0.81020   0.00000
O          O       0.19077   0.01831   0.06020   0.00000
O          O       0.30920   0.48171   0.06020   0.00000
O          O       0.94082   0.73170   0.31020   0.00000
O          O       0.05918   0.26830   0.31020   0.00000
O          O       0.19077   0.51829   0.56020   0.00000
O          O       0.30920   0.98169   0.56020   0.00000
O          O       0.44079   0.23172   0.31020   0.00000
O          O       0.55921   0.76828   0.31020   0.00000
O          O       0.69080   0.01831   0.56020   0.00000
O          O       0.80923   0.48171   0.56020   0.00000
O          O       0.44079   0.73170   0.81020   0.00000
O          O       0.55921   0.26830   0.81020   0.00000
O          O       0.69080   0.51829   0.06020   0.00000
O          O       0.80923   0.98169   0.06020   0.00000
C          C       0.99381   0.26071   0.79331   0.00000
C          C       0.00619   0.73929   0.79331   0.00000
C          C       0.24382   0.98932   0.04331   0.00000
C          C       0.25621   0.51070   0.04331   0.00000
C          C       0.99381   0.76069   0.29331   0.00000
C          C       0.00619   0.23931   0.29331   0.00000
C          C       0.24382   0.48930   0.54331   0.00000
C          C       0.25621   0.01068   0.54331   0.00000
C          C       0.49378   0.26071   0.29331   0.00000
C          C       0.50622   0.73929   0.29331   0.00000
C          C       0.74379   0.98932   0.54331   0.00000
C          C       0.75618   0.51070   0.54331   0.00000
C          C       0.49378   0.76069   0.79331   0.00000
C          C       0.50622   0.23931   0.79331   0.00000
C          C       0.74379   0.48930   0.04331   0.00000
C          C       0.75618   0.01068   0.04331   0.00000
C          C       0.06417   0.26871   0.82540   0.00000
C          C       0.93583   0.73129   0.82540   0.00000
C          C       0.31419   0.98128   0.07540   0.00000
C          C       0.18578   0.51870   0.07540   0.00000
C          C       0.06417   0.76869   0.32540   0.00000
C          C       0.93583   0.23131   0.32540   0.00000
C          C       0.31419   0.48130   0.57540   0.00000
C          C       0.18578   0.01872   0.57540   0.00000
C          C       0.56420   0.26871   0.32540   0.00000
C          C       0.43580   0.73129   0.32540   0.00000
C          C       0.81422   0.98128   0.57540   0.00000
C          C       0.68581   0.51870   0.57540   0.00000
C          C       0.56420   0.76869   0.82540   0.00000
C          C       0.43580   0.23131   0.82540   0.00000
C          C       0.81422   0.48130   0.07540   0.00000
C          C       0.68581   0.01872   0.07540   0.00000
H          H       0.04998   0.25920   0.85689   0.00000
H          H       0.95002   0.74080   0.85689   0.00000
H          H       0.29999   0.99079   0.10689   0.00000
H          H       0.19998   0.50919   0.10689   0.00000
H          H       0.04998   0.75918   0.35689   0.00000
H          H       0.95002   0.24082   0.35689   0.00000
H          H       0.29999   0.49081   0.60689   0.00000
H          H       0.19998   0.00921   0.60689   0.00000
H          H       0.55001   0.25920   0.35689   0.00000
H          H       0.44999   0.74080   0.35689   0.00000
H          H       0.80002   0.99079   0.60689   0.00000
H          H       0.70001   0.50919   0.60689   0.00000
H          H       0.55001   0.75918   0.85689   0.00000
H          H       0.44999   0.24082   0.85689   0.00000
H          H       0.80002   0.49081   0.10689   0.00000
H          H       0.70001   0.00921   0.10689   0.00000
H          H       0.07903   0.30290   0.82501   0.00000
H          H       0.92097   0.69710   0.82501   0.00000
H          H       0.32898   0.94709   0.07501   0.00000
H          H       0.17099   0.55289   0.07501   0.00000
H          H       0.07903   0.80292   0.32501   0.00000
H          H       0.92097   0.19708   0.32501   0.00000
H          H       0.32898   0.44711   0.57501   0.00000
H          H       0.17099   0.05291   0.57501   0.00000
H          H       0.57900   0.30290   0.32501   0.00000
H          H       0.42100   0.69710   0.32501   0.00000
H          H       0.82901   0.94709   0.57501   0.00000
H          H       0.67102   0.55289   0.57501   0.00000
H          H       0.57900   0.80292   0.82501   0.00000
H          H       0.42100   0.19708   0.82501   0.00000
H          H       0.82901   0.44711   0.07501   0.00000
H          H       0.67102   0.05291   0.07501   0.00000
H          H       0.10880   0.24911   0.81478   0.00000
H          H       0.89120   0.75089   0.81478   0.00000
H          H       0.35881   0.00088   0.06478   0.00000
H          H       0.14122   0.49910   0.06478   0.00000
H          H       0.10880   0.74909   0.31478   0.00000
H          H       0.89120   0.25091   0.31478   0.00000
H          H       0.35881   0.50090   0.56478   0.00000
H          H       0.14122   0.99912   0.56478   0.00000
H          H       0.60883   0.24911   0.31478   0.00000
H          H       0.39117   0.75089   0.31478   0.00000
H          H       0.85878   0.00088   0.56478   0.00000
H          H       0.64119   0.49910   0.56478   0.00000
H          H       0.60883   0.74909   0.81478   0.00000
H          H       0.39117   0.25091   0.81478   0.00000
H          H       0.85878   0.50090   0.06478   0.00000
H          H       0.64119   0.99912   0.06478   0.00000
O          O       0.75660   0.11090   0.78121   0.00000
O          O       0.24340   0.88910   0.78121   0.00000
O          O       0.00662   0.13909   0.03121   0.00000
O          O       0.49341   0.36089   0.03121   0.00000
O          O       0.75660   0.61088   0.28121   0.00000
O          O       0.24340   0.38912   0.28121   0.00000
O          O       0.00662   0.63911   0.53121   0.00000
O          O       0.49341   0.86091   0.53121   0.00000
O          O       0.25657   0.11090   0.28121   0.00000
O          O       0.74343   0.88910   0.28121   0.00000
O          O       0.50659   0.13909   0.53121   0.00000
O          O       0.99338   0.36089   0.53121   0.00000
O          O       0.25657   0.61088   0.78121   0.00000
O          O       0.74343   0.38912   0.78121   0.00000
O          O       0.50659   0.63911   0.03121   0.00000
O          O       0.99338   0.86091   0.03121   0.00000
O          O       0.86762   0.14672   0.75621   0.00000
O          O       0.13238   0.85328   0.75621   0.00000
O          O       0.11758   0.10331   0.00621   0.00000
O          O       0.38239   0.39671   0.00621   0.00000
O          O       0.86762   0.64670   0.25621   0.00000
O          O       0.13238   0.35330   0.25621   0.00000
O          O       0.11758   0.60329   0.50621   0.00000
O          O       0.38239   0.89669   0.50621   0.00000
O          O       0.36759   0.14672   0.25621   0.00000
O          O       0.63241   0.85328   0.25621   0.00000
O          O       0.61761   0.10331   0.50621   0.00000
O          O       0.88242   0.39671   0.50621   0.00000
O          O       0.36759   0.64670   0.75621   0.00000
O          O       0.63241   0.35330   0.75621   0.00000
O          O       0.61761   0.60329   0.00621   0.00000
O          O       0.88242   0.89669   0.00621   0.00000
C          C       0.82282   0.11101   0.76428   0.00000
C          C       0.17718   0.88899   0.76428   0.00000
C          C       0.07277   0.13901   0.01428   0.00000
C          C       0.42720   0.36100   0.01428   0.00000
C          C       0.82282   0.61099   0.26428   0.00000
C          C       0.17718   0.38901   0.26428   0.00000
C          C       0.07277   0.63900   0.51428   0.00000
C          C       0.42720   0.86099   0.51428   0.00000
C          C       0.32279   0.11101   0.26428   0.00000
C          C       0.67721   0.88899   0.26428   0.00000
C          C       0.57280   0.13901   0.51428   0.00000
C          C       0.92723   0.36100   0.51428   0.00000
C          C       0.32279   0.61099   0.76428   0.00000
C          C       0.67721   0.38901   0.76428   0.00000
C          C       0.57280   0.63900   0.01428   0.00000
C          C       0.92723   0.86099   0.01428   0.00000
C          C       0.85770   0.06348   0.74630   0.00000
C          C       0.14230   0.93652   0.74630   0.00000
C          C       0.10772   0.18651   0.99630   0.00000
C          C       0.39231   0.31351   0.99630   0.00000
C          C       0.85770   0.56350   0.24630   0.00000
C          C       0.14230   0.43650   0.24630   0.00000
C          C       0.10772   0.68649   0.49630   0.00000
C          C       0.39231   0.81349   0.49630   0.00000
C          C       0.35767   0.06348   0.24630   0.00000
C          C       0.64233   0.93652   0.24630   0.00000
C          C       0.60769   0.18651   0.49630   0.00000
C          C       0.89228   0.31351   0.49630   0.00000
C          C       0.35767   0.56350   0.74630   0.00000
C          C       0.64233   0.43650   0.74630   0.00000
C          C       0.60769   0.68649   0.99630   0.00000
C          C       0.89228   0.81349   0.99630   0.00000
H          H       0.91478   0.06691   0.74281   0.00000
H          H       0.08522   0.93309   0.74281   0.00000
H          H       0.16479   0.18312   0.99281   0.00000
H          H       0.33518   0.31690   0.99281   0.00000
H          H       0.91478   0.56689   0.24281   0.00000
H          H       0.08522   0.43311   0.24281   0.00000
H          H       0.16479   0.68310   0.49281   0.00000
H          H       0.33518   0.81688   0.49281   0.00000
H          H       0.41481   0.06691   0.24281   0.00000
H          H       0.58519   0.93309   0.24281   0.00000
H          H       0.66482   0.18312   0.49281   0.00000
H          H       0.83521   0.31690   0.49281   0.00000
H          H       0.41481   0.56689   0.74281   0.00000
H          H       0.58519   0.43311   0.74281   0.00000
H          H       0.66482   0.68310   0.99281   0.00000
H          H       0.83521   0.81688   0.99281   0.00000
H          H       0.83413   0.05571   0.71629   0.00000
H          H       0.16587   0.94429   0.71629   0.00000
H          H       0.08408   0.19428   0.96629   0.00000
H          H       0.41589   0.30570   0.96629   0.00000
H          H       0.83413   0.55569   0.21629   0.00000
H          H       0.16587   0.44431   0.21629   0.00000
H          H       0.08408   0.69430   0.46629   0.00000
H          H       0.41589   0.80572   0.46629   0.00000
H          H       0.33410   0.05571   0.21629   0.00000
H          H       0.66590   0.94429   0.21629   0.00000
H          H       0.58411   0.19428   0.46629   0.00000
H          H       0.91592   0.30570   0.46629   0.00000
H          H       0.33410   0.55569   0.71629   0.00000
H          H       0.66590   0.44431   0.71629   0.00000
H          H       0.58411   0.69430   0.96629   0.00000
H          H       0.91592   0.80572   0.96629   0.00000
H          H       0.84627   0.03751   0.76830   0.00000
H          H       0.15373   0.96249   0.76830   0.00000
H          H       0.09629   0.21248   0.01830   0.00000
H          H       0.40368   0.28750   0.01830   0.00000
H          H       0.84627   0.53749   0.26830   0.00000
H          H       0.15373   0.46251   0.26830   0.00000
H          H       0.09629   0.71250   0.51830   0.00000
H          H       0.40368   0.78752   0.51830   0.00000
H          H       0.34630   0.03751   0.26830   0.00000
H          H       0.65370   0.96249   0.26830   0.00000
H          H       0.59632   0.21248   0.51830   0.00000
H          H       0.90371   0.28750   0.51830   0.00000
H          H       0.34630   0.53749   0.76830   0.00000
H          H       0.65370   0.46251   0.76830   0.00000
H          H       0.59632   0.71250   0.01830   0.00000
H          H       0.90371   0.78752   0.01830   0.00000
O          O       0.73290   0.09970   0.88070   0.00000
O          O       0.26710   0.90030   0.88070   0.00000
O          O       0.98292   0.15029   0.13070   0.00000
O          O       0.51711   0.34969   0.13070   0.00000
O          O       0.73290   0.59968   0.38070   0.00000
O          O       0.26710   0.40032   0.38070   0.00000
O          O       0.98292   0.65031   0.63070   0.00000
O          O       0.51711   0.84971   0.63070   0.00000
O          O       0.23287   0.09970   0.38070   0.00000
O          O       0.76713   0.90030   0.38070   0.00000
O          O       0.48289   0.15029   0.63070   0.00000
O          O       0.01708   0.34969   0.63070   0.00000
O          O       0.23287   0.59968   0.88070   0.00000
O          O       0.76713   0.40032   0.88070   0.00000
O          O       0.48289   0.65031   0.13070   0.00000
O          O       0.01708   0.84971   0.13070   0.00000
O          O       0.77422   0.02789   0.90841   0.00000
O          O       0.22578   0.97211   0.90841   0.00000
O          O       0.02418   0.22210   0.15841   0.00000
O          O       0.47579   0.27788   0.15841   0.00000
O          O       0.77422   0.52791   0.40841   0.00000
O          O       0.22578   0.47209   0.40841   0.00000
O          O       0.02418   0.72212   0.65841   0.00000
O          O       0.47579   0.77790   0.65841   0.00000
O          O       0.27419   0.02789   0.40841   0.00000
O          O       0.72581   0.97211   0.40841   0.00000
O          O       0.52421   0.22210   0.65841   0.00000
O          O       0.97582   0.27788   0.65841   0.00000
O          O       0.27419   0.52791   0.90841   0.00000
O          O       0.72581   0.47209   0.90841   0.00000
O          O       0.52421   0.72212   0.15841   0.00000
O          O       0.97582   0.77790   0.15841   0.00000
C          C       0.73092   0.05401   0.88101   0.00000
C          C       0.26908   0.94599   0.88101   0.00000
C          C       0.98087   0.19601   0.13101   0.00000
C          C       0.51910   0.30401   0.13101   0.00000
C          C       0.73092   0.55400   0.38101   0.00000
C          C       0.26908   0.44600   0.38101   0.00000
C          C       0.98087   0.69599   0.63101   0.00000
C          C       0.51910   0.80399   0.63101   0.00000
C          C       0.23089   0.05401   0.38101   0.00000
C          C       0.76911   0.94599   0.38101   0.00000
C          C       0.48090   0.19601   0.63101   0.00000
C          C       0.01913   0.30401   0.63101   0.00000
C          C       0.23089   0.55400   0.88101   0.00000
C          C       0.76911   0.44600   0.88101   0.00000
C          C       0.48090   0.69599   0.13101   0.00000
C          C       0.01913   0.80399   0.13101   0.00000
C          C       0.67751   0.02509   0.84822   0.00000
C          C       0.32249   0.97491   0.84822   0.00000
C          C       0.92753   0.22490   0.09822   0.00000
C          C       0.57250   0.27508   0.09822   0.00000
C          C       0.67751   0.52511   0.34822   0.00000
C          C       0.32249   0.47489   0.34822   0.00000
C          C       0.92753   0.72492   0.59822   0.00000
C          C       0.57250   0.77510   0.59822   0.00000
C          C       0.17748   0.02509   0.34822   0.00000
C          C       0.82252   0.97491   0.34822   0.00000
C          C       0.42750   0.22490   0.59822   0.00000
C          C       0.07247   0.27508   0.59822   0.00000
C          C       0.17748   0.52511   0.84822   0.00000
C          C       0.82252   0.47489   0.84822   0.00000
C          C       0.42750   0.72492   0.09822   0.00000
C          C       0.07247   0.77510   0.09822   0.00000
H          H       0.67348   0.99171   0.85911   0.00000
H          H       0.32652   0.00829   0.85911   0.00000
H          H       0.92350   0.25832   0.10911   0.00000
H          H       0.57647   0.24170   0.10911   0.00000
H          H       0.67348   0.49169   0.35911   0.00000
H          H       0.32652   0.50831   0.35911   0.00000
H          H       0.92350   0.75830   0.60911   0.00000
H          H       0.57647   0.74168   0.60911   0.00000
H          H       0.17351   0.99171   0.35911   0.00000
H          H       0.82649   0.00829   0.35911   0.00000
H          H       0.42353   0.25832   0.60911   0.00000
H          H       0.07650   0.24170   0.60911   0.00000
H          H       0.17351   0.49169   0.85911   0.00000
H          H       0.82649   0.50831   0.85911   0.00000
H          H       0.42353   0.75830   0.10911   0.00000
H          H       0.07650   0.74168   0.10911   0.00000
H          H       0.69989   0.02550   0.81701   0.00000
H          H       0.30011   0.97450   0.81701   0.00000
H          H       0.94990   0.22449   0.06701   0.00000
H          H       0.55013   0.27549   0.06701   0.00000
H          H       0.69989   0.52551   0.31701   0.00000
H          H       0.30011   0.47449   0.31701   0.00000
H          H       0.94990   0.72451   0.56701   0.00000
H          H       0.55013   0.77551   0.56701   0.00000
H          H       0.19992   0.02550   0.31701   0.00000
H          H       0.80008   0.97450   0.31701   0.00000
H          H       0.44987   0.22449   0.56701   0.00000
H          H       0.05010   0.27549   0.56701   0.00000
H          H       0.19992   0.52551   0.81701   0.00000
H          H       0.80008   0.47449   0.81701   0.00000
H          H       0.44987   0.72451   0.06701   0.00000
H          H       0.05010   0.77551   0.06701   0.00000
H          H       0.62489   0.03968   0.84769   0.00000
H          H       0.37511   0.96032   0.84769   0.00000
H          H       0.87490   0.21031   0.09769   0.00000
H          H       0.62513   0.28971   0.09769   0.00000
H          H       0.62489   0.53970   0.34769   0.00000
H          H       0.37511   0.46030   0.34769   0.00000
H          H       0.87490   0.71029   0.59769   0.00000
H          H       0.62513   0.78969   0.59769   0.00000
H          H       0.12492   0.03968   0.34769   0.00000
H          H       0.87508   0.96032   0.34769   0.00000
H          H       0.37487   0.21031   0.59769   0.00000
H          H       0.12510   0.28971   0.59769   0.00000
H          H       0.12492   0.53970   0.84769   0.00000
H          H       0.87508   0.46030   0.84769   0.00000
H          H       0.37487   0.71029   0.09769   0.00000
H          H       0.12510   0.78969   0.09769   0.00000
