# CIF file generated by openbabel 2.4.1, see http://openbabel.sf.net
data_I
_chemical_name_common '?'
_cell_length_a 16.627
_cell_length_b 27.141
_cell_length_c 28.356
_cell_angle_alpha 90
_cell_angle_beta 90
_cell_angle_gamma 90
_space_group_name_H-M_alt 'F d d 2'
_space_group_name_Hall 'F 2 -2d'
loop_
    _symmetry_equiv_pos_as_xyz
    x,y,z
    -x,-y,z
    1/4+x,1/4-y,1/4+z
    1/4-x,1/4+y,1/4+z
    1/2+x,y,1/2+z
    1/2-x,-y,1/2+z
    3/4+x,1/4-y,3/4+z
    3/4-x,1/4+y,3/4+z
    x,1/2+y,1/2+z
    -x,1/2-y,1/2+z
    1/4+x,3/4-y,3/4+z
    1/4-x,3/4+y,3/4+z
    1/2+x,1/2+y,z
    1/2-x,1/2-y,z
    3/4+x,3/4-y,1/4+z
    3/4-x,3/4+y,1/4+z
loop_
    _atom_site_label
    _atom_site_type_symbol
    _atom_site_fract_x
    _atom_site_fract_y
    _atom_site_fract_z
    _atom_site_occupancy
    Zn1     Zn   0.84092   0.21298   0.77813   1.000
    Zn2     Zn   0.69383   0.14867   0.83368   1.000
    Zn3     Zn   0.59729   0.19446   0.70706   1.000
    O1      O    0.76390   0.20820   0.82860   1.000
    N1      N    0.63990   0.19760   0.88320   1.000
    C1      C    0.57610   0.18760   0.91100   1.000
    H1      H    0.55110   0.15710   0.90810   1.000
    C2      C    0.54760   0.21940   0.94240   1.000
    H2      H    0.50250   0.21150   0.96030   1.000
    C3      C    0.58660   0.26560   0.94840   1.000
    H3      H    0.56830   0.28800   0.97080   1.000
    C4      C    0.65060   0.27620   0.92110   1.000
    H4      H    0.67650   0.30640   0.92330   1.000
    C5      C    0.67720   0.23990   0.88900   1.000
    C6      C    0.75000   0.25000   0.85620   1.000
    O11     O    0.81960   0.25520   0.72530   1.000
    N11     N    0.69290   0.17580   0.66170   1.000
    C21     C    0.69330   0.13560   0.63230   1.000
    H21     H    0.64740   0.11630   0.62920   1.000
    C22     C    0.75870   0.12460   0.60850   1.000
    H22     H    0.75980   0.09570   0.59080   1.000
    C23     C    0.83030   0.15660   0.60900   1.000
    H23     H    0.87460   0.15120   0.58970   1.000
    C24     C    0.82610   0.19570   0.64110   1.000
    H24     H    0.87120   0.21540   0.64570   1.000
    C25     C    0.75810   0.20550   0.66550   1.000
    C26     C    0.75000   0.25000   0.69760   1.000
    O31     O    0.58040   0.12650   0.73280   1.000
    O32     O    0.58700   0.12650   0.81110   1.000
    C31     C    0.55910   0.11500   0.77220   1.000
    C32     C    0.48870   0.07830   0.77520   1.000
    H32A    H    0.50590   0.04920   0.79150   1.000
    H32B    H    0.47140   0.06970   0.74390   1.000
    H32C    H    0.44490   0.09320   0.79200   1.000
    O33     O    0.98880   0.28110   0.75680   1.000
    O34     O    0.94080   0.23170   0.81020   1.000
    C33     C    0.99380   0.26070   0.79330   1.000
    C34     C    0.06420   0.26870   0.82540   1.000
    H34A    H    0.05000   0.25920   0.85690   1.000
    H34B    H    0.07900   0.30290   0.82500   1.000
    H34C    H    0.10880   0.24910   0.81480   1.000
    O35     O    0.75660   0.11090   0.78120   1.000
    O36     O    0.86760   0.14670   0.75620   1.000
    C35     C    0.82280   0.11100   0.76430   1.000
    C36     C    0.85770   0.06350   0.74630   1.000
    H36A    H    0.91480   0.06690   0.74280   1.000
    H36B    H    0.83410   0.05570   0.71630   1.000
    H36C    H    0.84630   0.03750   0.76830   1.000
    O37     O    0.73290   0.09970   0.88070   1.000
    O38     O    0.77420   0.02790   0.90840   1.000
    C37     C    0.73090   0.05400   0.88100   1.000
    C38     C    0.67750   0.02510   0.84820   1.000
    H38A    H    0.67350   0.99170   0.85910   1.000
    H38B    H    0.69990   0.02550   0.81700   1.000
    H38C    H    0.62490   0.03970   0.84770   1.000
