data_crystal
 
_cell_length_a    33.17600
_cell_length_b    33.18200
_cell_length_c    23.06300
_cell_angle_alpha 90.00000
_cell_angle_beta  90.00000
_cell_angle_gamma 90.00000
 
_symmetry_space_group_name_Hall 'P 1'
_symmetry_space_group_name_H-M  'P 1'
 
loop_
_symmetry_equiv_pos_as_xyz
 'x,y,z' 
 
loop_
_atom_site_label
_atom_site_type_symbol
_atom_site_fract_x
_atom_site_fract_y
_atom_site_fract_z
_atom_site_charge
Cu         Cu      0.22848   0.22759   0.49980   0.0000000000
Cu         Cu      0.17534   0.17476   0.49998   0.0000000000
Cu         Cu      0.33901   0.33934   0.16771   0.0000000000
Cu         Cu      0.37723   0.37752   0.24251   0.0000000000
Cu         Cu      0.49904   0.25830   0.49863   0.0000000000
Cu         Cu      0.49904   0.18329   0.49855   0.0000000000
O          O       0.20228   0.04228   0.28895   0.0000000000
O          O       0.25181   0.04213   0.21975   0.0000000000
O          O       0.25576   0.19568   0.43672   0.0000000000
O          O       0.20620   0.14767   0.43880   0.0000000000
O          O       0.35004   0.28995   0.21454   0.0000000000
O          O       0.38416   0.32596   0.28353   0.0000000000
O          O       0.45605   0.18661   0.43897   0.0000000000
O          O       0.45801   0.25565   0.43607   0.0000000000
C          C       0.25645   0.08857   0.29714   0.0000000000
C          C       0.23840   0.10849   0.34406   0.0000000000
H          H       0.20886   0.09927   0.35941   0.0000000000
C          C       0.25850   0.14089   0.37025   0.0000000000
C          C       0.29675   0.15279   0.35034   0.0000000000
H          H       0.31161   0.17814   0.37124   0.0000000000
C          C       0.31523   0.13245   0.30430   0.0000000000
C          C       0.29458   0.10063   0.27772   0.0000000000
H          H       0.30790   0.08481   0.24112   0.0000000000
C          C       0.37991   0.25541   0.29367   0.0000000000
C          C       0.40581   0.25662   0.34167   0.0000000000
H          H       0.41834   0.28512   0.35624   0.0000000000
C          C       0.41614   0.22072   0.36981   0.0000000000
C          C       0.40023   0.18393   0.35034   0.0000000000
H          H       0.40888   0.15635   0.37263   0.0000000000
C          C       0.37413   0.18254   0.30278   0.0000000000
C          C       0.36409   0.21855   0.27464   0.0000000000
H          H       0.34413   0.21834   0.23718   0.0000000000
C          C       0.35719   0.14288   0.28205   0.0000000000
H          H       0.37783   0.11841   0.29458   0.0000000000
H          H       0.35634   0.14270   0.23436   0.0000000000
C          C       0.23514   0.05488   0.26640   0.0000000000
C          C       0.23882   0.16331   0.41929   0.0000000000
C          C       0.37036   0.29344   0.26133   0.0000000000
C          C       0.44562   0.22111   0.41916   0.0000000000
O          O       0.14598   0.95766   0.19984   0.0000000000
O          O       0.19580   0.95618   0.13112   0.0000000000
C          C       0.16328   0.94352   0.15466   0.0000000000
C          C       0.14366   0.90757   0.12722   0.0000000000
C          C       0.10857   0.89127   0.15141   0.0000000000
H          H       0.09495   0.90510   0.18935   0.0000000000
C          C       0.16156   0.88919   0.07883   0.0000000000
H          H       0.18899   0.90230   0.06109   0.0000000000
C          C       0.14480   0.85447   0.05433   0.0000000000
C          C       0.16316   0.83569   0.00043   0.0000000000
H          H       0.15789   0.80300   0.00069   0.0000000000
O          O       0.39209   0.33036   0.12813   0.0000000000
O          O       0.42615   0.36607   0.19755   0.0000000000
C          C       0.42404   0.34398   0.15219   0.0000000000
C          C       0.46362   0.33214   0.12570   0.0000000000
C          C       0.50000   0.34507   0.15050   0.0000000000
H          H       0.49976   0.36453   0.18835   0.0000000000
C          C       0.46407   0.30652   0.07735   0.0000000000
H          H       0.43544   0.29679   0.05914   0.0000000000
C          C       0.50051   0.29341   0.05342   0.0000000000
C          C       0.50054   0.26722  -0.00052   0.0000000000
H          H       0.47402   0.24742  -0.00026   0.0000000000
Cu         Cu      0.82810   0.00063   0.75255   0.0000000000
Cu         Cu      0.17145  -0.00042   0.75281   0.0000000000
Cu         Cu     -0.00003   0.82831   0.75289   0.0000000000
Cu         Cu      0.00036   0.17178   0.75233   0.0000000000
Cu         Cu      0.17166  -0.00009   0.24728   0.0000000000
Cu         Cu      0.82828   0.00054   0.24754   0.0000000000
Cu         Cu     -0.00009   0.82837   0.24732   0.0000000000
Cu         Cu      0.00051   0.17190   0.24750   0.0000000000
Cu         Cu      0.77445   0.00060   0.82747   0.0000000000
Cu         Cu      0.22534  -0.00042   0.82778   0.0000000000
Cu         Cu     -0.00045   0.77440   0.82769   0.0000000000
Cu         Cu      0.00039   0.22582   0.82700   0.0000000000
Cu         Cu      0.22549  -0.00030   0.17218   0.0000000000
Cu         Cu      0.77460   0.00051   0.17244   0.0000000000
Cu         Cu     -0.00039   0.77452   0.17231   0.0000000000
Cu         Cu      0.00051   0.22566   0.17283   0.0000000000
Cu         Cu      0.77246   0.77301   0.50024   0.0000000000
Cu         Cu      0.77218   0.22844   0.49993   0.0000000000
Cu         Cu      0.22712   0.77265   0.49993   0.0000000000
Cu         Cu      0.82493   0.82647   0.50007   0.0000000000
Cu         Cu      0.82487   0.17528   0.49998   0.0000000000
Cu         Cu      0.17392   0.82533   0.49989   0.0000000000
Cu         Cu      0.66090   0.66042   0.17045   0.0000000000
Cu         Cu      0.66084   0.33919   0.16993   0.0000000000
Cu         Cu      0.33916   0.66054   0.17006   0.0000000000
Cu         Cu      0.66066   0.33910   0.82925   0.0000000000
Cu         Cu      0.33940   0.66084   0.82951   0.0000000000
Cu         Cu      0.33934   0.33916   0.82973   0.0000000000
Cu         Cu      0.66066   0.66060   0.82864   0.0000000000
Cu         Cu      0.62280   0.62233   0.24541   0.0000000000
Cu         Cu      0.62268   0.37722   0.24489   0.0000000000
Cu         Cu      0.37714   0.62239   0.24511   0.0000000000
Cu         Cu      0.62259   0.37722   0.75489   0.0000000000
Cu         Cu      0.37753   0.62290   0.75498   0.0000000000
Cu         Cu      0.37753   0.37719   0.75502   0.0000000000
Cu         Cu      0.62253   0.62257   0.75476   0.0000000000
Cu         Cu      0.50003   0.74188   0.49989   0.0000000000
Cu         Cu      0.74189   0.49991   0.49998   0.0000000000
Cu         Cu      0.25877   0.50003   0.50002   0.0000000000
Cu         Cu      0.50003   0.81689   0.49980   0.0000000000
Cu         Cu      0.81686   0.49988   0.49998   0.0000000000
Cu         Cu      0.18366   0.49997   0.49998   0.0000000000
O          O       0.79753   0.95805   0.28890   0.0000000000
O          O       0.95801   0.20249   0.28912   0.0000000000
O          O       0.04223   0.79763   0.28890   0.0000000000
O          O       0.79814   0.04394   0.71097   0.0000000000
O          O       0.20213   0.95766   0.71088   0.0000000000
O          O       0.04362   0.20171   0.71071   0.0000000000
O          O       0.95777   0.79793   0.71097   0.0000000000
O          O       0.79753   0.95808   0.71110   0.0000000000
O          O       0.20225   0.04213   0.71123   0.0000000000
O          O       0.04226   0.79766   0.71118   0.0000000000
O          O       0.95789   0.20240   0.71092   0.0000000000
O          O       0.20225   0.95769   0.28895   0.0000000000
O          O       0.79835   0.04397   0.28899   0.0000000000
O          O       0.95771   0.79802   0.28921   0.0000000000
O          O       0.04386   0.20177   0.28916   0.0000000000
O          O       0.74813   0.95790   0.21953   0.0000000000
O          O       0.95783   0.25194   0.21992   0.0000000000
O          O       0.04214   0.74812   0.21966   0.0000000000
O          O       0.74777   0.04222   0.77861   0.0000000000
O          O       0.25196   0.95784   0.77956   0.0000000000
O          O       0.04199   0.25225   0.77813   0.0000000000
O          O       0.95783   0.74803   0.77947   0.0000000000
O          O       0.74810   0.95793   0.78038   0.0000000000
O          O       0.25181   0.04207   0.78038   0.0000000000
O          O       0.04211   0.74809   0.78025   0.0000000000
O          O       0.95777   0.25197   0.77995   0.0000000000
O          O       0.25202   0.95784   0.22014   0.0000000000
O          O       0.74795   0.04207   0.22135   0.0000000000
O          O       0.95792   0.74800   0.22096   0.0000000000
O          O       0.04211   0.25222   0.22174   0.0000000000
O          O       0.74605   0.80447   0.43637   0.0000000000
O          O       0.80513   0.25592   0.43845   0.0000000000
O          O       0.19384   0.74429   0.43928   0.0000000000
O          O       0.74424   0.19583   0.56133   0.0000000000
O          O       0.25573   0.80601   0.56020   0.0000000000
O          O       0.19586   0.25556   0.56146   0.0000000000
O          O       0.80408   0.74616   0.56350   0.0000000000
O          O       0.74421   0.80625   0.56086   0.0000000000
O          O       0.25567   0.19396   0.56099   0.0000000000
O          O       0.19562   0.74610   0.56359   0.0000000000
O          O       0.80513   0.25592   0.56142   0.0000000000
O          O       0.25383   0.80423   0.43646   0.0000000000
O          O       0.74424   0.19571   0.43845   0.0000000000
O          O       0.80619   0.74435   0.44079   0.0000000000
O          O       0.19574   0.25580   0.43875   0.0000000000
O          O       0.79398   0.85411   0.43923   0.0000000000
O          O       0.85251   0.20586   0.43897   0.0000000000
O          O       0.14625   0.79429   0.43901   0.0000000000
O          O       0.79395   0.14794   0.56090   0.0000000000
O          O       0.20458   0.85233   0.56146   0.0000000000
O          O       0.14800   0.20580   0.56086   0.0000000000
O          O       0.85233   0.79546   0.56112   0.0000000000
O          O       0.79404   0.85405   0.56094   0.0000000000
O          O       0.20584   0.14613   0.56064   0.0000000000
O          O       0.14601   0.79404   0.56055   0.0000000000
O          O       0.85251   0.20586   0.56103   0.0000000000
O          O       0.20563   0.85363   0.43971   0.0000000000
O          O       0.79398   0.14788   0.43906   0.0000000000
O          O       0.85224   0.79570   0.43875   0.0000000000
O          O       0.14794   0.20602   0.43919   0.0000000000
O          O       0.64987   0.71002   0.21697   0.0000000000
O          O       0.71009   0.35004   0.21714   0.0000000000
O          O       0.29003   0.64999   0.21766   0.0000000000
O          O       0.64996   0.29004   0.78069   0.0000000000
O          O       0.34995   0.70987   0.78121   0.0000000000
O          O       0.28994   0.35004   0.78286   0.0000000000
O          O       0.70988   0.65005   0.78112   0.0000000000
O          O       0.65005   0.70987   0.78112   0.0000000000
O          O       0.35001   0.29016   0.78121   0.0000000000
O          O       0.28994   0.64996   0.78277   0.0000000000
O          O       0.71009   0.35001   0.78277   0.0000000000
O          O       0.35013   0.70999   0.21693   0.0000000000
O          O       0.64999   0.28995   0.21719   0.0000000000
O          O       0.70988   0.65008   0.21884   0.0000000000
O          O       0.29006   0.35004   0.21658   0.0000000000
O          O       0.61590   0.67407   0.28622   0.0000000000
O          O       0.67422   0.38433   0.28613   0.0000000000
O          O       0.32566   0.61467   0.28596   0.0000000000
O          O       0.61394   0.32590   0.71361   0.0000000000
O          O       0.38600   0.67428   0.71383   0.0000000000
O          O       0.32596   0.38412   0.71383   0.0000000000
O          O       0.67413   0.61419   0.71370   0.0000000000
O          O       0.61418   0.67419   0.71370   0.0000000000
O          O       0.38600   0.32578   0.71378   0.0000000000
O          O       0.32593   0.61588   0.71378   0.0000000000
O          O       0.67416   0.38415   0.71378   0.0000000000
O          O       0.38419   0.67407   0.28613   0.0000000000
O          O       0.61557   0.32578   0.28613   0.0000000000
O          O       0.67428   0.61404   0.28626   0.0000000000
O          O       0.32596   0.38605   0.28361   0.0000000000
O          O       0.54205   0.81378   0.43893   0.0000000000
O          O       0.81381   0.45796   0.43897   0.0000000000
O          O       0.18625   0.54198   0.43910   0.0000000000
O          O       0.54199   0.18622   0.55830   0.0000000000
O          O       0.45807   0.81436   0.56077   0.0000000000
O          O       0.18646   0.45802   0.56094   0.0000000000
O          O       0.81432   0.54195   0.56086   0.0000000000
O          O       0.54196   0.81448   0.56081   0.0000000000
O          O       0.45810   0.18570   0.56086   0.0000000000
O          O       0.18640   0.54198   0.56094   0.0000000000
O          O       0.81384   0.45799   0.56103   0.0000000000
O          O       0.45798   0.81366   0.43893   0.0000000000
O          O       0.54003   0.18603   0.43633   0.0000000000
O          O       0.81426   0.54195   0.43914   0.0000000000
O          O       0.18679   0.45802   0.43901   0.0000000000
O          O       0.54205   0.74471   0.43871   0.0000000000
O          O       0.74476   0.45793   0.43880   0.0000000000
O          O       0.25537   0.54204   0.43884   0.0000000000
O          O       0.54003   0.25520   0.56116   0.0000000000
O          O       0.45807   0.74537   0.56094   0.0000000000
O          O       0.25558   0.45799   0.56120   0.0000000000
O          O       0.74536   0.54192   0.56099   0.0000000000
O          O       0.54196   0.74552   0.56099   0.0000000000
O          O       0.45605   0.25463   0.55830   0.0000000000
O          O       0.25552   0.54204   0.56120   0.0000000000
O          O       0.74476   0.45793   0.56120   0.0000000000
O          O       0.45798   0.74456   0.43875   0.0000000000
O          O       0.54202   0.25502   0.43884   0.0000000000
O          O       0.74530   0.54192   0.43901   0.0000000000
O          O       0.25588   0.45799   0.43880   0.0000000000
C          C       0.74346   0.91164   0.29714   0.0000000000
C          C       0.91156   0.25658   0.29766   0.0000000000
C          C       0.08811   0.74323   0.29766   0.0000000000
C          C       0.74313   0.08920   0.70169   0.0000000000
C          C       0.25642   0.91173   0.70173   0.0000000000
C          C       0.08886   0.25658   0.70130   0.0000000000
C          C       0.91150   0.74390   0.70195   0.0000000000
C          C       0.74322   0.91194   0.70251   0.0000000000
C          C       0.25663   0.08809   0.70242   0.0000000000
C          C       0.08844   0.74345   0.70268   0.0000000000
C          C       0.91153   0.25658   0.70229   0.0000000000
C          C       0.25648   0.91161   0.29779   0.0000000000
C          C       0.74331   0.08896   0.29818   0.0000000000
C          C       0.91171   0.74381   0.29866   0.0000000000
C          C       0.08913   0.25674   0.29840   0.0000000000
C          C       0.76179   0.89184   0.34388   0.0000000000
C          C       0.89170   0.23844   0.34453   0.0000000000
C          C       0.10761   0.76132   0.34484   0.0000000000
C          C       0.76127   0.10919   0.65499   0.0000000000
C          C       0.23815   0.89208   0.65477   0.0000000000
C          C       0.10887   0.23844   0.65460   0.0000000000
C          C       0.89158   0.76246   0.65551   0.0000000000
C          C       0.76124   0.89250   0.65521   0.0000000000
C          C       0.23858   0.10759   0.65516   0.0000000000
C          C       0.10821   0.76180   0.65594   0.0000000000
C          C       0.89167   0.23844   0.65538   0.0000000000
C          C       0.23812   0.89184   0.34449   0.0000000000
C          C       0.76136   0.10885   0.34505   0.0000000000
C          C       0.89206   0.76204   0.34566   0.0000000000
C          C       0.10902   0.23871   0.34527   0.0000000000
H          H       0.79136   0.90115   0.35893   0.0000000000
H          H       0.90086   0.20882   0.35958   0.0000000000
H          H       0.09832   0.79091   0.35988   0.0000000000
H          H       0.79105   0.10033   0.64007   0.0000000000
H          H       0.20852   0.90139   0.63981   0.0000000000
H          H       0.09980   0.20879   0.63951   0.0000000000
H          H       0.90086   0.79212   0.64068   0.0000000000
H          H       0.79078   0.90187   0.64003   0.0000000000
H          H       0.20901   0.09825   0.64007   0.0000000000
H          H       0.09893   0.79142   0.64103   0.0000000000
H          H       0.90080   0.20882   0.64029   0.0000000000
H          H       0.20852   0.90112   0.35949   0.0000000000
H          H       0.79102   0.09972   0.36014   0.0000000000
H          H       0.90140   0.79166   0.36058   0.0000000000
H          H       0.09986   0.20909   0.36045   0.0000000000
C          C       0.74186   0.85947   0.37038   0.0000000000
C          C       0.85951   0.25860   0.37116   0.0000000000
C          C       0.13968   0.74122   0.37181   0.0000000000
C          C       0.74105   0.14128   0.62828   0.0000000000
C          C       0.25817   0.85989   0.62798   0.0000000000
C          C       0.14113   0.25863   0.62819   0.0000000000
C          C       0.85915   0.74263   0.62906   0.0000000000
C          C       0.74114   0.86038   0.62841   0.0000000000
C          C       0.25868   0.13968   0.62832   0.0000000000
C          C       0.14052   0.74188   0.62936   0.0000000000
C          C       0.85948   0.25863   0.62876   0.0000000000
C          C       0.25802   0.85947   0.37107   0.0000000000
C          C       0.74117   0.14107   0.37155   0.0000000000
C          C       0.85987   0.74203   0.37246   0.0000000000
C          C       0.14119   0.25891   0.37185   0.0000000000
C          C       0.70352   0.84745   0.35104   0.0000000000
C          C       0.84766   0.29697   0.35165   0.0000000000
C          C       0.15174   0.70291   0.35234   0.0000000000
C          C       0.70253   0.15288   0.64749   0.0000000000
C          C       0.29651   0.84787   0.64744   0.0000000000
C          C       0.15285   0.29700   0.64779   0.0000000000
C          C       0.84718   0.70421   0.64827   0.0000000000
C          C       0.70292   0.84823   0.64805   0.0000000000
C          C       0.29693   0.15180   0.64788   0.0000000000
C          C       0.15252   0.70351   0.64857   0.0000000000
C          C       0.84766   0.29700   0.64827   0.0000000000
C          C       0.29636   0.84742   0.35173   0.0000000000
C          C       0.70280   0.15279   0.35186   0.0000000000
C          C       0.84781   0.70369   0.35299   0.0000000000
C          C       0.15300   0.29727   0.35225   0.0000000000
H          H       0.68878   0.82216   0.37228   0.0000000000
H          H       0.82249   0.31189   0.37294   0.0000000000
H          H       0.17684   0.68805   0.37385   0.0000000000
H          H       0.68755   0.17796   0.62611   0.0000000000
H          H       0.31128   0.82264   0.62611   0.0000000000
H          H       0.17814   0.31189   0.62672   0.0000000000
H          H       0.82177   0.68959   0.62715   0.0000000000
H          H       0.68806   0.82307   0.62667   0.0000000000
H          H       0.31176   0.17693   0.62646   0.0000000000
H          H       0.17781   0.68878   0.62733   0.0000000000
H          H       0.82246   0.31189   0.62702   0.0000000000
H          H       0.31104   0.82207   0.37289   0.0000000000
H          H       0.68785   0.17802   0.37294   0.0000000000
H          H       0.82261   0.68893   0.37432   0.0000000000
H          H       0.17826   0.31216   0.37333   0.0000000000
C          C       0.68474   0.86773   0.30521   0.0000000000
C          C       0.86786   0.31550   0.30555   0.0000000000
C          C       0.13184   0.68441   0.30594   0.0000000000
C          C       0.68399   0.13257   0.69345   0.0000000000
C          C       0.31511   0.86785   0.69367   0.0000000000
C          C       0.13241   0.31553   0.69367   0.0000000000
C          C       0.86755   0.68528   0.69388   0.0000000000
C          C       0.68447   0.86809   0.69453   0.0000000000
C          C       0.31541   0.13194   0.69432   0.0000000000
C          C       0.13226   0.68471   0.69440   0.0000000000
C          C       0.86786   0.31550   0.69436   0.0000000000
C          C       0.31517   0.86767   0.30590   0.0000000000
C          C       0.68432   0.13242   0.30586   0.0000000000
C          C       0.86780   0.68510   0.30673   0.0000000000
C          C       0.13269   0.31571   0.30616   0.0000000000
C          C       0.70524   0.89949   0.27815   0.0000000000
C          C       0.89951   0.29480   0.27854   0.0000000000
C          C       0.10031   0.70505   0.27858   0.0000000000
C          C       0.70476   0.10102   0.72059   0.0000000000
C          C       0.29455   0.89949   0.72081   0.0000000000
C          C       0.10071   0.29486   0.72046   0.0000000000
C          C       0.89942   0.70565   0.72076   0.0000000000
C          C       0.70512   0.89967   0.72176   0.0000000000
C          C       0.29476   0.10039   0.72163   0.0000000000
C          C       0.10049   0.70520   0.72150   0.0000000000
C          C       0.89948   0.29480   0.72137   0.0000000000
C          C       0.29470   0.89946   0.27884   0.0000000000
C          C       0.70509   0.10078   0.27897   0.0000000000
C          C       0.89948   0.70565   0.27958   0.0000000000
C          C       0.10107   0.29495   0.27924   0.0000000000
H          H       0.69167   0.91526   0.24169   0.0000000000
H          H       0.91527   0.30821   0.24190   0.0000000000
H          H       0.08482   0.69170   0.24173   0.0000000000
H          H       0.69137   0.08520   0.75714   0.0000000000
H          H       0.30799   0.91510   0.75758   0.0000000000
H          H       0.08479   0.30821   0.75693   0.0000000000
H          H       0.91530   0.69200   0.75706   0.0000000000
H          H       0.69180   0.91513   0.75870   0.0000000000
H          H       0.30808   0.08490   0.75853   0.0000000000
H          H       0.08473   0.69161   0.75797   0.0000000000
H          H       0.91524   0.30821   0.75801   0.0000000000
H          H       0.30827   0.91523   0.24238   0.0000000000
H          H       0.69177   0.08490   0.24242   0.0000000000
H          H       0.91506   0.69224   0.24281   0.0000000000
H          H       0.08521   0.30833   0.24268   0.0000000000
C          C       0.62000   0.74468   0.29602   0.0000000000
C          C       0.74482   0.38003   0.29602   0.0000000000
C          C       0.25515   0.61994   0.29628   0.0000000000
C          C       0.61888   0.25532   0.70264   0.0000000000
C          C       0.38037   0.74483   0.70316   0.0000000000
C          C       0.25534   0.38006   0.70385   0.0000000000
C          C       0.74479   0.61970   0.70307   0.0000000000
C          C       0.61954   0.74486   0.70325   0.0000000000
C          C       0.38027   0.25523   0.70299   0.0000000000
C          C       0.25527   0.62003   0.70377   0.0000000000
C          C       0.74479   0.38003   0.70390   0.0000000000
C          C       0.38000   0.74465   0.29602   0.0000000000
C          C       0.61976   0.25520   0.29584   0.0000000000
C          C       0.74479   0.61976   0.29688   0.0000000000
C          C       0.25558   0.38069   0.29519   0.0000000000
C          C       0.59389   0.74357   0.34380   0.0000000000
C          C       0.74367   0.40615   0.34375   0.0000000000
C          C       0.25630   0.59385   0.34401   0.0000000000
C          C       0.59263   0.25640   0.65503   0.0000000000
C          C       0.40653   0.74396   0.65555   0.0000000000
C          C       0.25654   0.40618   0.65616   0.0000000000
C          C       0.74391   0.59351   0.65551   0.0000000000
C          C       0.59347   0.74405   0.65555   0.0000000000
C          C       0.40602   0.25610   0.65490   0.0000000000
C          C       0.25648   0.59391   0.65607   0.0000000000
C          C       0.74367   0.40615   0.65620   0.0000000000
C          C       0.40617   0.74351   0.34375   0.0000000000
C          C       0.59338   0.25625   0.34328   0.0000000000
C          C       0.74391   0.59357   0.34445   0.0000000000
C          C       0.25681   0.40670   0.34306   0.0000000000
H          H       0.58138   0.71509   0.35841   0.0000000000
H          H       0.71516   0.41863   0.35841   0.0000000000
H          H       0.28481   0.58131   0.35858   0.0000000000
H          H       0.58000   0.28485   0.64046   0.0000000000
H          H       0.41931   0.71563   0.64085   0.0000000000
H          H       0.28506   0.41866   0.64155   0.0000000000
H          H       0.71558   0.58068   0.64085   0.0000000000
H          H       0.58078   0.71572   0.64068   0.0000000000
H          H       0.41856   0.28446   0.63981   0.0000000000
H          H       0.28497   0.58134   0.64155   0.0000000000
H          H       0.71516   0.41863   0.64155   0.0000000000
H          H       0.41874   0.71503   0.35824   0.0000000000
H          H       0.58081   0.28473   0.35793   0.0000000000
H          H       0.71558   0.58071   0.35902   0.0000000000
H          H       0.28533   0.41935   0.35741   0.0000000000
C          C       0.58331   0.77955   0.37155   0.0000000000
C          C       0.77963   0.41673   0.37155   0.0000000000
C          C       0.22037   0.58330   0.37185   0.0000000000
C          C       0.58217   0.22039   0.62720   0.0000000000
C          C       0.41678   0.78003   0.62789   0.0000000000
C          C       0.22061   0.41679   0.62828   0.0000000000
C          C       0.78002   0.58330   0.62789   0.0000000000
C          C       0.58316   0.78018   0.62811   0.0000000000
C          C       0.41620   0.22000   0.62724   0.0000000000
C          C       0.22055   0.58333   0.62819   0.0000000000
C          C       0.77963   0.41676   0.62845   0.0000000000
C          C       0.41669   0.77943   0.37168   0.0000000000
C          C       0.58256   0.22027   0.37072   0.0000000000
C          C       0.77999   0.58333   0.37215   0.0000000000
C          C       0.22097   0.41697   0.37137   0.0000000000
C          C       0.59932   0.81632   0.35204   0.0000000000
C          C       0.81640   0.40085   0.35199   0.0000000000
C          C       0.18360   0.59924   0.35243   0.0000000000
C          C       0.59823   0.18365   0.64666   0.0000000000
C          C       0.40059   0.81668   0.64744   0.0000000000
C          C       0.18381   0.40088   0.64766   0.0000000000
C          C       0.81664   0.59960   0.64731   0.0000000000
C          C       0.59923   0.81680   0.64788   0.0000000000
C          C       0.40035   0.18332   0.64723   0.0000000000
C          C       0.18375   0.59930   0.64757   0.0000000000
C          C       0.81640   0.40085   0.64796   0.0000000000
C          C       0.40062   0.81620   0.35234   0.0000000000
C          C       0.59857   0.18350   0.35130   0.0000000000
C          C       0.81661   0.59960   0.35273   0.0000000000
C          C       0.18417   0.40091   0.35217   0.0000000000
H          H       0.59046   0.84392   0.37406   0.0000000000
H          H       0.84404   0.40971   0.37398   0.0000000000
H          H       0.15599   0.59038   0.37441   0.0000000000
H          H       0.58943   0.15605   0.62459   0.0000000000
H          H       0.40930   0.84437   0.62555   0.0000000000
H          H       0.15623   0.40974   0.62559   0.0000000000
H          H       0.84435   0.59092   0.62542   0.0000000000
H          H       0.59049   0.84455   0.62611   0.0000000000
H          H       0.40903   0.15560   0.62537   0.0000000000
H          H       0.15617   0.59044   0.62550   0.0000000000
H          H       0.84404   0.40974   0.62598   0.0000000000
H          H       0.40942   0.84380   0.37441   0.0000000000
H          H       0.58955   0.15584   0.37302   0.0000000000
H          H       0.84432   0.59092   0.37467   0.0000000000
H          H       0.15662   0.40956   0.37454   0.0000000000
C          C       0.62569   0.81761   0.30477   0.0000000000
C          C       0.81776   0.37448   0.30473   0.0000000000
C          C       0.18224   0.62561   0.30516   0.0000000000
C          C       0.62467   0.18239   0.69384   0.0000000000
C          C       0.37416   0.81773   0.69462   0.0000000000
C          C       0.18239   0.37454   0.69492   0.0000000000
C          C       0.81767   0.62603   0.69449   0.0000000000
C          C       0.62557   0.81782   0.69523   0.0000000000
C          C       0.37425   0.18227   0.69484   0.0000000000
C          C       0.18236   0.62567   0.69479   0.0000000000
C          C       0.81776   0.37448   0.69523   0.0000000000
C          C       0.37422   0.81755   0.30508   0.0000000000
C          C       0.62524   0.18227   0.30438   0.0000000000
C          C       0.81767   0.62606   0.30555   0.0000000000
C          C       0.18269   0.37472   0.30473   0.0000000000
C          C       0.63588   0.78154   0.27689   0.0000000000
C          C       0.78168   0.36420   0.27689   0.0000000000
C          C       0.21832   0.63586   0.27724   0.0000000000
C          C       0.63483   0.21849   0.72168   0.0000000000
C          C       0.36418   0.78151   0.72233   0.0000000000
C          C       0.21844   0.36423   0.72289   0.0000000000
C          C       0.78144   0.63598   0.72220   0.0000000000
C          C       0.63564   0.78154   0.72272   0.0000000000
C          C       0.36433   0.21849   0.72250   0.0000000000
C          C       0.21841   0.63592   0.72276   0.0000000000
C          C       0.78168   0.36423   0.72306   0.0000000000
C          C       0.36406   0.78151   0.27707   0.0000000000
C          C       0.63567   0.21837   0.27676   0.0000000000
C          C       0.78147   0.63604   0.27780   0.0000000000
C          C       0.21868   0.36469   0.27642   0.0000000000
H          H       0.65596   0.78166   0.23960   0.0000000000
H          H       0.78183   0.34410   0.23960   0.0000000000
H          H       0.21814   0.65596   0.23995   0.0000000000
H          H       0.65505   0.21843   0.75883   0.0000000000
H          H       0.34401   0.78142   0.75957   0.0000000000
H          H       0.21823   0.34410   0.76014   0.0000000000
H          H       0.78132   0.65614   0.75944   0.0000000000
H          H       0.65575   0.78139   0.75996   0.0000000000
H          H       0.34441   0.21858   0.76001   0.0000000000
H          H       0.21823   0.65605   0.76001   0.0000000000
H          H       0.78180   0.34410   0.76031   0.0000000000
H          H       0.34392   0.78166   0.23982   0.0000000000
H          H       0.65605   0.21828   0.23978   0.0000000000
H          H       0.78141   0.65617   0.24060   0.0000000000
H          H       0.21844   0.34461   0.23913   0.0000000000
C          C       0.64257   0.85727   0.28379   0.0000000000
C          C       0.85746   0.35760   0.28387   0.0000000000
C          C       0.14251   0.64237   0.28422   0.0000000000
C          C       0.64170   0.14276   0.71478   0.0000000000
C          C       0.35707   0.85724   0.71574   0.0000000000
C          C       0.14269   0.35760   0.71556   0.0000000000
C          C       0.85716   0.64318   0.71552   0.0000000000
C          C       0.64254   0.85733   0.71660   0.0000000000
C          C       0.35737   0.14273   0.71630   0.0000000000
C          C       0.14266   0.64252   0.71569   0.0000000000
C          C       0.85743   0.35760   0.71608   0.0000000000
C          C       0.35728   0.85721   0.28431   0.0000000000
C          C       0.64230   0.14267   0.28370   0.0000000000
C          C       0.85722   0.64318   0.28461   0.0000000000
C          C       0.14299   0.35775   0.28422   0.0000000000
H          H       0.62208   0.88174   0.29671   0.0000000000
H          H       0.88190   0.37816   0.29680   0.0000000000
H          H       0.11813   0.62169   0.29706   0.0000000000
H          H       0.62135   0.11820   0.70160   0.0000000000
H          H       0.37771   0.88177   0.70342   0.0000000000
H          H       0.11822   0.37813   0.70255   0.0000000000
H          H       0.88178   0.62275   0.70286   0.0000000000
H          H       0.62184   0.88186   0.70446   0.0000000000
H          H       0.37807   0.11823   0.70407   0.0000000000
H          H       0.11819   0.62202   0.70247   0.0000000000
H          H       0.88190   0.37816   0.70316   0.0000000000
H          H       0.37783   0.88168   0.29727   0.0000000000
H          H       0.62177   0.11814   0.29641   0.0000000000
H          H       0.88175   0.62254   0.29693   0.0000000000
H          H       0.11855   0.37834   0.29719   0.0000000000
H          H       0.64296   0.85748   0.23605   0.0000000000
H          H       0.85776   0.35712   0.23614   0.0000000000
H          H       0.14227   0.64291   0.23653   0.0000000000
H          H       0.64197   0.14243   0.76248   0.0000000000
H          H       0.35625   0.85721   0.76343   0.0000000000
H          H       0.14227   0.35703   0.76326   0.0000000000
H          H       0.85728   0.64375   0.76321   0.0000000000
H          H       0.64336   0.85715   0.76430   0.0000000000
H          H       0.35661   0.14294   0.76399   0.0000000000
H          H       0.14230   0.64276   0.76339   0.0000000000
H          H       0.85773   0.35709   0.76378   0.0000000000
H          H       0.35682   0.85751   0.23661   0.0000000000
H          H       0.64309   0.14240   0.23601   0.0000000000
H          H       0.85725   0.64399   0.23692   0.0000000000
H          H       0.14257   0.35712   0.23653   0.0000000000
C          C       0.76477   0.94530   0.26627   0.0000000000
C          C       0.94520   0.23531   0.26666   0.0000000000
C          C       0.05474   0.76472   0.26644   0.0000000000
C          C       0.76474   0.05575   0.73269   0.0000000000
C          C       0.23514   0.94515   0.73304   0.0000000000
C          C       0.05540   0.23513   0.73226   0.0000000000
C          C       0.94511   0.76496   0.73304   0.0000000000
C          C       0.76468   0.94539   0.73360   0.0000000000
C          C       0.23514   0.05470   0.73364   0.0000000000
C          C       0.05483   0.76475   0.73364   0.0000000000
C          C       0.94514   0.23525   0.73334   0.0000000000
C          C       0.23520   0.94515   0.26670   0.0000000000
C          C       0.76495   0.05560   0.26722   0.0000000000
C          C       0.94517   0.76496   0.26731   0.0000000000
C          C       0.05567   0.23516   0.26753   0.0000000000
C          C       0.76203   0.83744   0.41933   0.0000000000
C          C       0.83717   0.23880   0.42020   0.0000000000
C          C       0.16177   0.76129   0.42080   0.0000000000
C          C       0.76109   0.16361   0.57950   0.0000000000
C          C       0.23809   0.83759   0.57915   0.0000000000
C          C       0.16361   0.23865   0.57950   0.0000000000
C          C       0.83666   0.76288   0.58058   0.0000000000
C          C       0.76115   0.83838   0.57928   0.0000000000
C          C       0.23870   0.16177   0.57920   0.0000000000
C          C       0.16262   0.76210   0.58045   0.0000000000
C          C       0.83717   0.23880   0.57972   0.0000000000
C          C       0.23773   0.83726   0.41976   0.0000000000
C          C       0.76112   0.16346   0.42037   0.0000000000
C          C       0.83759   0.76207   0.42137   0.0000000000
C          C       0.16352   0.23889   0.42067   0.0000000000
C          C       0.62961   0.70656   0.26389   0.0000000000
C          C       0.70669   0.37044   0.26389   0.0000000000
C          C       0.29331   0.62926   0.26410   0.0000000000
C          C       0.62859   0.29341   0.73481   0.0000000000
C          C       0.37114   0.70662   0.73516   0.0000000000
C          C       0.29340   0.37038   0.73603   0.0000000000
C          C       0.70656   0.62893   0.73503   0.0000000000
C          C       0.62889   0.70659   0.73507   0.0000000000
C          C       0.37111   0.29344   0.73512   0.0000000000
C          C       0.29337   0.62965   0.73594   0.0000000000
C          C       0.70672   0.37038   0.73598   0.0000000000
C          C       0.37042   0.70656   0.26380   0.0000000000
C          C       0.62949   0.29332   0.26389   0.0000000000
C          C       0.70656   0.62893   0.26484   0.0000000000
C          C       0.29353   0.37126   0.26254   0.0000000000
C          C       0.55359   0.77922   0.42059   0.0000000000
C          C       0.77927   0.44645   0.42059   0.0000000000
C          C       0.22082   0.55352   0.42076   0.0000000000
C          C       0.55248   0.22072   0.57807   0.0000000000
C          C       0.44653   0.77985   0.57907   0.0000000000
C          C       0.22103   0.44651   0.57928   0.0000000000
C          C       0.77981   0.55349   0.57911   0.0000000000
C          C       0.55347   0.78000   0.57915   0.0000000000
C          C       0.44562   0.22021   0.57794   0.0000000000
C          C       0.22094   0.55352   0.57928   0.0000000000
C          C       0.77930   0.44645   0.57941   0.0000000000
C          C       0.44647   0.77910   0.42059   0.0000000000
C          C       0.55260   0.22054   0.41942   0.0000000000
C          C       0.77975   0.55349   0.42089   0.0000000000
C          C       0.22136   0.44654   0.42059   0.0000000000
O          O       0.85417   0.04249   0.19984   0.0000000000
O          O       0.04238   0.14586   0.19993   0.0000000000
O          O       0.95771   0.85408   0.19989   0.0000000000
O          O       0.85411   0.95793   0.79933   0.0000000000
O          O       0.14556   0.04207   0.79942   0.0000000000
O          O       0.95789   0.14601   0.79968   0.0000000000
O          O       0.04229   0.85405   0.79998   0.0000000000
O          O       0.85414   0.04276   0.79994   0.0000000000
O          O       0.14610   0.95642   0.79977   0.0000000000
O          O       0.95768   0.85411   0.80011   0.0000000000
O          O       0.04232   0.14562   0.79955   0.0000000000
O          O       0.14577   0.04231   0.20058   0.0000000000
O          O       0.85423   0.95781   0.20093   0.0000000000
O          O       0.04232   0.85429   0.20071   0.0000000000
O          O       0.95792   0.14598   0.20049   0.0000000000
O          O       0.80423   0.04400   0.13129   0.0000000000
O          O       0.04398   0.19598   0.13177   0.0000000000
O          O       0.95614   0.80417   0.13129   0.0000000000
O          O       0.80510   0.95802   0.86914   0.0000000000
O          O       0.19448   0.04195   0.86931   0.0000000000
O          O       0.95795   0.19538   0.86905   0.0000000000
O          O       0.04217   0.80459   0.86927   0.0000000000
O          O       0.80423   0.04403   0.86845   0.0000000000
O          O       0.19568   0.95606   0.86897   0.0000000000
O          O       0.95611   0.80429   0.86879   0.0000000000
O          O       0.04404   0.19610   0.86697   0.0000000000
O          O       0.19469   0.04204   0.13069   0.0000000000
O          O       0.80543   0.95811   0.13077   0.0000000000
O          O       0.04193   0.80544   0.13069   0.0000000000
O          O       0.95795   0.19520   0.13099   0.0000000000
C          C       0.83684   0.05666   0.15471   0.0000000000
C          C       0.05658   0.16325   0.15484   0.0000000000
C          C       0.94354   0.83678   0.15471   0.0000000000
C          C       0.83714   0.94455   0.84521   0.0000000000
C          C       0.16247   0.05545   0.84534   0.0000000000
C          C       0.94451   0.16316   0.84538   0.0000000000
C          C       0.05570   0.83678   0.84564   0.0000000000
C          C       0.83681   0.05681   0.84516   0.0000000000
C          C       0.16337   0.94286   0.84534   0.0000000000
C          C       0.94348   0.83684   0.84529   0.0000000000
C          C       0.05652   0.16319   0.84443   0.0000000000
C          C       0.16268   0.05563   0.15466   0.0000000000
C          C       0.83738   0.94455   0.15488   0.0000000000
C          C       0.05555   0.83738   0.15471   0.0000000000
C          C       0.94448   0.16307   0.15475   0.0000000000
C          C       0.85646   0.09261   0.12722   0.0000000000
C          C       0.09242   0.14366   0.12717   0.0000000000
C          C       0.90767   0.85646   0.12713   0.0000000000
C          C       0.85637   0.90841   0.87283   0.0000000000
C          C       0.14324   0.09153   0.87287   0.0000000000
C          C       0.90843   0.14387   0.87309   0.0000000000
C          C       0.09187   0.85586   0.87330   0.0000000000
C          C       0.85649   0.09270   0.87283   0.0000000000
C          C       0.14387   0.90694   0.87304   0.0000000000
C          C       0.90752   0.85649   0.87270   0.0000000000
C          C       0.09224   0.14357   0.87248   0.0000000000
C          C       0.14351   0.09171   0.12700   0.0000000000
C          C       0.85661   0.90844   0.12717   0.0000000000
C          C       0.09169   0.85652   0.12713   0.0000000000
C          C       0.90837   0.14381   0.12713   0.0000000000
C          C       0.89149   0.10904   0.15150   0.0000000000
C          C       0.10878   0.10864   0.15145   0.0000000000
C          C       0.89137   0.89151   0.15150   0.0000000000
C          C       0.89113   0.89151   0.84842   0.0000000000
C          C       0.10854   0.10843   0.84842   0.0000000000
C          C       0.89155   0.10910   0.84868   0.0000000000
C          C       0.10881   0.89054   0.84885   0.0000000000
H          H       0.90508   0.09529   0.18948   0.0000000000
H          H       0.09507   0.09514   0.18952   0.0000000000
H          H       0.90514   0.90501   0.18952   0.0000000000
H          H       0.90484   0.90507   0.81035   0.0000000000
H          H       0.09480   0.09484   0.81043   0.0000000000
H          H       0.90520   0.09538   0.81069   0.0000000000
H          H       0.09525   0.90429   0.81082   0.0000000000
C          C       0.83862   0.11087   0.07874   0.0000000000
C          C       0.11062   0.16144   0.07861   0.0000000000
C          C       0.88941   0.83868   0.07865   0.0000000000
C          C       0.83835   0.89048   0.92139   0.0000000000
C          C       0.16129   0.10952   0.92139   0.0000000000
C          C       0.89040   0.16186   0.92161   0.0000000000
C          C       0.10984   0.83783   0.92187   0.0000000000
C          C       0.83865   0.11087   0.92135   0.0000000000
C          C       0.16171   0.88873   0.92156   0.0000000000
C          C       0.88929   0.83871   0.92126   0.0000000000
C          C       0.11044   0.16141   0.92104   0.0000000000
C          C       0.16150   0.10961   0.07839   0.0000000000
C          C       0.83853   0.89054   0.07861   0.0000000000
C          C       0.10972   0.83835   0.07874   0.0000000000
C          C       0.89037   0.16183   0.07861   0.0000000000
H          H       0.81128   0.09767   0.06092   0.0000000000
H          H       0.09745   0.18881   0.06075   0.0000000000
H          H       0.90252   0.81131   0.06079   0.0000000000
H          H       0.81125   0.90407   0.93934   0.0000000000
H          H       0.18839   0.09590   0.93934   0.0000000000
H          H       0.90394   0.18899   0.93960   0.0000000000
H          H       0.09618   0.81080   0.93990   0.0000000000
H          H       0.81128   0.09767   0.93912   0.0000000000
H          H       0.18905   0.90190   0.93938   0.0000000000
H          H       0.90249   0.81140   0.93912   0.0000000000
H          H       0.09733   0.18881   0.93878   0.0000000000
H          H       0.18857   0.09596   0.06040   0.0000000000
H          H       0.81143   0.90420   0.06070   0.0000000000
H          H       0.09609   0.81122   0.06092   0.0000000000
H          H       0.90397   0.18893   0.06062   0.0000000000
C          C       0.85538   0.14556   0.05411   0.0000000000
C          C       0.14526   0.14457   0.05385   0.0000000000
C          C       0.85474   0.85555   0.05403   0.0000000000
C          C       0.85462   0.85552   0.94593   0.0000000000
C          C       0.14507   0.14454   0.94580   0.0000000000
C          C       0.85541   0.14556   0.94606   0.0000000000
C          C       0.14483   0.85414   0.94632   0.0000000000
C          C       0.83702   0.16409   0.00009   0.0000000000
C          C       0.16373   0.16286  -0.00026   0.0000000000
C          C       0.83609   0.83723   0.00000   0.0000000000
H          H       0.84218   0.19679   0.00009   0.0000000000
H          H       0.19644   0.15765  -0.00035   0.0000000000
H          H       0.80341   0.84247   0.00004   0.0000000000
H          H       0.84079   0.80447   0.00000   0.0000000000
H          H       0.15900   0.19562  -0.00022   0.0000000000
H          H       0.80429   0.15927   0.00009   0.0000000000
H          H       0.19592   0.84040   0.00043   0.0000000000
O          O       0.60803   0.66810   0.13056   0.0000000000
O          O       0.66976   0.39202   0.13069   0.0000000000
O          O       0.33006   0.60792   0.13064   0.0000000000
O          O       0.60803   0.33015   0.86905   0.0000000000
O          O       0.39209   0.66985   0.86927   0.0000000000
O          O       0.33027   0.39205   0.86931   0.0000000000
O          O       0.66979   0.60798   0.86901   0.0000000000
O          O       0.60806   0.66979   0.86905   0.0000000000
O          O       0.39209   0.33015   0.86927   0.0000000000
O          O       0.33039   0.60801   0.86918   0.0000000000
O          O       0.66970   0.39199   0.86923   0.0000000000
O          O       0.39203   0.66816   0.13043   0.0000000000
O          O       0.60803   0.33021   0.13064   0.0000000000
O          O       0.66997   0.60783   0.13086   0.0000000000
O          O       0.33015   0.39211   0.12821   0.0000000000
O          O       0.57361   0.63381   0.20088   0.0000000000
O          O       0.63401   0.42623   0.19989   0.0000000000
O          O       0.36596   0.57353   0.19945   0.0000000000
O          O       0.57370   0.36610   0.80024   0.0000000000
O          O       0.42639   0.63396   0.80046   0.0000000000
O          O       0.36596   0.42623   0.80011   0.0000000000
O          O       0.63392   0.57365   0.80020   0.0000000000
O          O       0.57367   0.63396   0.80029   0.0000000000
O          O       0.42639   0.36607   0.80046   0.0000000000
O          O       0.36605   0.57381   0.79994   0.0000000000
O          O       0.63401   0.42623   0.80003   0.0000000000
O          O       0.42639   0.63375   0.20067   0.0000000000
O          O       0.57367   0.36592   0.19967   0.0000000000
O          O       0.63395   0.57359   0.19971   0.0000000000
O          O       0.36617   0.42626   0.19720   0.0000000000
C          C       0.57590   0.65511   0.15479   0.0000000000
C          C       0.65605   0.42406   0.15449   0.0000000000
C          C       0.34383   0.57585   0.15414   0.0000000000
C          C       0.57593   0.34386   0.84547   0.0000000000
C          C       0.42419   0.65611   0.84573   0.0000000000
C          C       0.34386   0.42412   0.84542   0.0000000000
C          C       0.65614   0.57582   0.84547   0.0000000000
C          C       0.57590   0.65611   0.84560   0.0000000000
C          C       0.42416   0.34383   0.84564   0.0000000000
C          C       0.34392   0.57594   0.84529   0.0000000000
C          C       0.65611   0.42406   0.84542   0.0000000000
C          C       0.42416   0.65508   0.15466   0.0000000000
C          C       0.57593   0.34389   0.15427   0.0000000000
C          C       0.65611   0.57579   0.15440   0.0000000000
C          C       0.34395   0.42412   0.15202   0.0000000000
C          C       0.53653   0.66684   0.12752   0.0000000000
C          C       0.66777   0.46344   0.12730   0.0000000000
C          C       0.33202   0.53659   0.12652   0.0000000000
C          C       0.53659   0.33193   0.87252   0.0000000000
C          C       0.46359   0.66786   0.87296   0.0000000000
C          C       0.33190   0.46356   0.87235   0.0000000000
C          C       0.66795   0.53644   0.87257   0.0000000000
C          C       0.53656   0.66789   0.87287   0.0000000000
C          C       0.46362   0.33190   0.87265   0.0000000000
C          C       0.33199   0.53656   0.87222   0.0000000000
C          C       0.66789   0.46347   0.87257   0.0000000000
C          C       0.46353   0.66684   0.12743   0.0000000000
C          C       0.53662   0.33205   0.12674   0.0000000000
C          C       0.66777   0.53641   0.12722   0.0000000000
C          C       0.33214   0.46362   0.12540   0.0000000000
C          C       0.50000   0.65394   0.15184   0.0000000000
C          C       0.65490   0.49994   0.15163   0.0000000000
C          C       0.34507   0.49997   0.15024   0.0000000000
C          C       0.50006   0.34486   0.84829   0.0000000000
C          C       0.50006   0.65508   0.84846   0.0000000000
C          C       0.34489   0.50003   0.84798   0.0000000000
C          C       0.65508   0.49997   0.84816   0.0000000000
H          H       0.50000   0.63459   0.18978   0.0000000000
H          H       0.63561   0.49997   0.18970   0.0000000000
H          H       0.36454   0.49973   0.18805   0.0000000000
H          H       0.50006   0.36432   0.81043   0.0000000000
H          H       0.50003   0.63589   0.81030   0.0000000000
H          H       0.36439   0.49997   0.81013   0.0000000000
H          H       0.63579   0.50000   0.81009   0.0000000000
C          C       0.53638   0.69239   0.07909   0.0000000000
C          C       0.69321   0.46359   0.07865   0.0000000000
C          C       0.30634   0.53668   0.07813   0.0000000000
C          C       0.53650   0.30634   0.92087   0.0000000000
C          C       0.46377   0.69312   0.92174   0.0000000000
C          C       0.30625   0.46384   0.92074   0.0000000000
C          C       0.69336   0.53625   0.92122   0.0000000000
C          C       0.53641   0.69315   0.92165   0.0000000000
C          C       0.46386   0.30622   0.92100   0.0000000000
C          C       0.30637   0.53647   0.92057   0.0000000000
C          C       0.69327   0.46362   0.92122   0.0000000000
C          C       0.46374   0.69239   0.07896   0.0000000000
C          C       0.53668   0.30640   0.07835   0.0000000000
C          C       0.69321   0.53619   0.07861   0.0000000000
C          C       0.30646   0.46408   0.07714   0.0000000000
H          H       0.56514   0.70216   0.06127   0.0000000000
H          H       0.70292   0.43484   0.06075   0.0000000000
H          H       0.29648   0.56549   0.06062   0.0000000000
H          H       0.56526   0.29667   0.93878   0.0000000000
H          H       0.43507   0.70276   0.93986   0.0000000000
H          H       0.29645   0.43515   0.93873   0.0000000000
H          H       0.70307   0.56497   0.93917   0.0000000000
H          H       0.56517   0.70279   0.93960   0.0000000000
H          H       0.43516   0.29640   0.93891   0.0000000000
H          H       0.29666   0.56522   0.93839   0.0000000000
H          H       0.70295   0.43487   0.93917   0.0000000000
H          H       0.43504   0.70216   0.06101   0.0000000000
H          H       0.56553   0.29658   0.06079   0.0000000000
H          H       0.70295   0.56491   0.06062   0.0000000000
H          H       0.29672   0.43545   0.05888   0.0000000000
C          C       0.50009   0.70538   0.05455   0.0000000000
C          C       0.70608   0.49988   0.05403   0.0000000000
C          C       0.29340   0.50051   0.05316   0.0000000000
C          C       0.50024   0.29326   0.94541   0.0000000000
C          C       0.50012   0.70596   0.94641   0.0000000000
C          C       0.29331   0.50021   0.94515   0.0000000000
C          C       0.70620   0.49991   0.94584   0.0000000000
C          C       0.50015   0.73172   0.00074   0.0000000000
C          C       0.73222   0.49988  -0.00004   0.0000000000
C          C       0.26721   0.50057  -0.00082   0.0000000000
H          H       0.52689   0.75128   0.00095   0.0000000000
H          H       0.75178   0.47318   0.00000   0.0000000000
H          H       0.24780   0.52736  -0.00095   0.0000000000
H          H       0.52737   0.24778  -0.00065   0.0000000000
H          H       0.47354   0.75140   0.00091   0.0000000000
H          H       0.24741   0.47405  -0.00056   0.0000000000
H          H       0.75187   0.52652   0.00004   0.0000000000
