#======================================================================

# CRYSTAL DATA

#----------------------------------------------------------------------

data_VESTA_phase_1


_pd_phase_name                         'crystal'
_cell_length_a                         33.17600
_cell_length_b                         33.18200
_cell_length_c                         23.06300
_cell_angle_alpha                      90
_cell_angle_beta                       90
_cell_angle_gamma                      90
_symmetry_space_group_name_H-M         'P 1'
_symmetry_Int_Tables_number            1

loop_
_symmetry_equiv_pos_as_xyz
   'x, y, z'

loop_
   _atom_site_label
   _atom_site_occupancy
   _atom_site_fract_x
   _atom_site_fract_y
   _atom_site_fract_z
   _atom_site_adp_type
   _atom_site_B_iso_or_equiv
   _atom_site_type_symbol
   Cu_1       1.0     0.228000      0.228000      0.500000     Biso  1.000000 Cu
   Cu_2       1.0     0.175000      0.175000      0.500000     Biso  1.000000 Cu
   Cu_3       1.0     0.339000      0.339000      0.168000     Biso  1.000000 Cu
   Cu_4       1.0     0.377000      0.378000      0.243000     Biso  1.000000 Cu
   Cu_5       1.0     0.499000      0.258000      0.499000     Biso  1.000000 Cu
   Cu_6       1.0     0.499000      0.183000      0.499000     Biso  1.000000 Cu
   O_7        1.0     0.202000      0.042000      0.289000     Biso  1.000000 O
   O_8        1.0     0.252000      0.042000      0.220000     Biso  1.000000 O
   O_9        1.0     0.256000      0.196000      0.437000     Biso  1.000000 O
   O_10       1.0     0.206000      0.148000      0.439000     Biso  1.000000 O
   O_11       1.0     0.350000      0.290000      0.215000     Biso  1.000000 O
   O_12       1.0     0.384000      0.326000      0.284000     Biso  1.000000 O
   O_13       1.0     0.456000      0.187000      0.439000     Biso  1.000000 O
   O_14       1.0     0.458000      0.256000      0.436000     Biso  1.000000 O
   C_15       1.0     0.256000      0.089000      0.297000     Biso  1.000000 C
   C_16       1.0     0.238000      0.108000      0.344000     Biso  1.000000 C
   H_17       1.0     0.209000      0.099000      0.359000     Biso  1.000000 H
   C_18       1.0     0.259000      0.141000      0.370000     Biso  1.000000 C
   C_19       1.0     0.297000      0.153000      0.350000     Biso  1.000000 C
   H_20       1.0     0.312000      0.178000      0.371000     Biso  1.000000 H
   C_21       1.0     0.315000      0.132000      0.304000     Biso  1.000000 C
   C_22       1.0     0.295000      0.101000      0.278000     Biso  1.000000 C
   H_23       1.0     0.308000      0.085000      0.241000     Biso  1.000000 H
   C_24       1.0     0.380000      0.255000      0.294000     Biso  1.000000 C
   C_25       1.0     0.406000      0.257000      0.342000     Biso  1.000000 C
   H_26       1.0     0.418000      0.285000      0.356000     Biso  1.000000 H
   C_27       1.0     0.416000      0.221000      0.370000     Biso  1.000000 C
   C_28       1.0     0.400000      0.184000      0.350000     Biso  1.000000 C
   H_29       1.0     0.409000      0.156000      0.373000     Biso  1.000000 H
   C_30       1.0     0.374000      0.183000      0.303000     Biso  1.000000 C
   C_31       1.0     0.364000      0.219000      0.275000     Biso  1.000000 C
   H_32       1.0     0.344000      0.218000      0.237000     Biso  1.000000 H
   C_33       1.0     0.357000      0.143000      0.282000     Biso  1.000000 C
   H_34       1.0     0.378000      0.118000      0.295000     Biso  1.000000 H
   H_35       1.0     0.356000      0.143000      0.234000     Biso  1.000000 H
   C_36       1.0     0.235000      0.055000      0.266000     Biso  1.000000 C
   C_37       1.0     0.239000      0.163000      0.419000     Biso  1.000000 C
   C_38       1.0     0.370000      0.293000      0.261000     Biso  1.000000 C
   C_39       1.0     0.446000      0.221000      0.419000     Biso  1.000000 C
   O_40       1.0     0.146000      0.958000      0.200000     Biso  1.000000 O
   O_41       1.0     0.196000      0.956000      0.131000     Biso  1.000000 O
   C_42       1.0     0.163000      0.944000      0.155000     Biso  1.000000 C
   C_43       1.0     0.144000      0.908000      0.127000     Biso  1.000000 C
   C_44       1.0     0.109000      0.891000      0.151000     Biso  1.000000 C
   H_45       1.0     0.095000      0.905000      0.189000     Biso  1.000000 H
   C_46       1.0     0.162000      0.889000      0.079000     Biso  1.000000 C
   H_47       1.0     0.189000      0.902000      0.061000     Biso  1.000000 H
   C_48       1.0     0.145000      0.854000      0.054000     Biso  1.000000 C
   C_49       1.0     0.163000      0.836000      0.000000     Biso  1.000000 C
   H_50       1.0     0.158000      0.803000      0.001000     Biso  1.000000 H
   O_51       1.0     0.392000      0.330000      0.128000     Biso  1.000000 O
   O_52       1.0     0.426000      0.366000      0.198000     Biso  1.000000 O
   C_53       1.0     0.424000      0.344000      0.152000     Biso  1.000000 C
   C_54       1.0     0.464000      0.332000      0.126000     Biso  1.000000 C
   C_55       1.0     0.500000      0.345000      0.150000     Biso  1.000000 C
   H_56       1.0     0.500000      0.365000      0.188000     Biso  1.000000 H
   C_57       1.0     0.464000      0.307000      0.077000     Biso  1.000000 C
   H_58       1.0     0.435000      0.297000      0.059000     Biso  1.000000 H
   C_59       1.0     0.501000      0.293000      0.053000     Biso  1.000000 C
   C_60       1.0     0.501000      0.267000     -0.001000     Biso  1.000000 C
   H_61       1.0     0.474000      0.247000     -0.000000     Biso  1.000000 H
   Cu_62      1.0     0.828000      0.001000      0.753000     Biso  1.000000 Cu
   Cu_63      1.0     0.171000     -0.000000      0.753000     Biso  1.000000 Cu
   Cu_64      1.0    -0.000000      0.828000      0.753000     Biso  1.000000 Cu
   Cu_65      1.0     0.000000      0.172000      0.752000     Biso  1.000000 Cu
   Cu_66      1.0     0.172000     -0.000000      0.247000     Biso  1.000000 Cu
   Cu_67      1.0     0.828000      0.001000      0.248000     Biso  1.000000 Cu
   Cu_68      1.0    -0.000000      0.828000      0.247000     Biso  1.000000 Cu
   Cu_69      1.0     0.001000      0.172000      0.248000     Biso  1.000000 Cu
   Cu_70      1.0     0.774000      0.001000      0.827000     Biso  1.000000 Cu
   Cu_71      1.0     0.225000     -0.000000      0.828000     Biso  1.000000 Cu
   Cu_72      1.0    -0.000000      0.774000      0.828000     Biso  1.000000 Cu
   Cu_73      1.0     0.000000      0.226000      0.827000     Biso  1.000000 Cu
   Cu_74      1.0     0.225000     -0.000000      0.172000     Biso  1.000000 Cu
   Cu_75      1.0     0.775000      0.001000      0.172000     Biso  1.000000 Cu
   Cu_76      1.0    -0.000000      0.775000      0.172000     Biso  1.000000 Cu
   Cu_77      1.0     0.000000      0.226000      0.173000     Biso  1.000000 Cu
   Cu_78      1.0     0.772000      0.773000      0.500000     Biso  1.000000 Cu
   Cu_79      1.0     0.772000      0.228000      0.500000     Biso  1.000000 Cu
   Cu_80      1.0     0.227000      0.773000      0.500000     Biso  1.000000 Cu
   Cu_81      1.0     0.825000      0.826000      0.500000     Biso  1.000000 Cu
   Cu_82      1.0     0.825000      0.175000      0.500000     Biso  1.000000 Cu
   Cu_83      1.0     0.174000      0.825000      0.500000     Biso  1.000000 Cu
   Cu_84      1.0     0.661000      0.660000      0.170000     Biso  1.000000 Cu
   Cu_85      1.0     0.661000      0.339000      0.170000     Biso  1.000000 Cu
   Cu_86      1.0     0.339000      0.661000      0.170000     Biso  1.000000 Cu
   Cu_87      1.0     0.661000      0.339000      0.829000     Biso  1.000000 Cu
   Cu_88      1.0     0.339000      0.661000      0.830000     Biso  1.000000 Cu
   Cu_89      1.0     0.339000      0.339000      0.830000     Biso  1.000000 Cu
   Cu_90      1.0     0.661000      0.661000      0.829000     Biso  1.000000 Cu
   Cu_91      1.0     0.623000      0.622000      0.245000     Biso  1.000000 Cu
   Cu_92      1.0     0.623000      0.377000      0.245000     Biso  1.000000 Cu
   Cu_93      1.0     0.377000      0.622000      0.245000     Biso  1.000000 Cu
   Cu_94      1.0     0.623000      0.377000      0.755000     Biso  1.000000 Cu
   Cu_95      1.0     0.378000      0.623000      0.755000     Biso  1.000000 Cu
   Cu_96      1.0     0.378000      0.377000      0.755000     Biso  1.000000 Cu
   Cu_97      1.0     0.623000      0.623000      0.755000     Biso  1.000000 Cu
   Cu_98      1.0     0.500000      0.742000      0.500000     Biso  1.000000 Cu
   Cu_99      1.0     0.742000      0.500000      0.500000     Biso  1.000000 Cu
   Cu_100     1.0     0.259000      0.500000      0.500000     Biso  1.000000 Cu
   Cu_101     1.0     0.500000      0.817000      0.500000     Biso  1.000000 Cu
   Cu_102     1.0     0.817000      0.500000      0.500000     Biso  1.000000 Cu
   Cu_103     1.0     0.184000      0.500000      0.500000     Biso  1.000000 Cu
   O_104      1.0     0.798000      0.958000      0.289000     Biso  1.000000 O
   O_105      1.0     0.958000      0.202000      0.289000     Biso  1.000000 O
   O_106      1.0     0.042000      0.798000      0.289000     Biso  1.000000 O
   O_107      1.0     0.798000      0.044000      0.711000     Biso  1.000000 O
   O_108      1.0     0.202000      0.958000      0.711000     Biso  1.000000 O
   O_109      1.0     0.044000      0.202000      0.711000     Biso  1.000000 O
   O_110      1.0     0.958000      0.798000      0.711000     Biso  1.000000 O
   O_111      1.0     0.798000      0.958000      0.711000     Biso  1.000000 O
   O_112      1.0     0.202000      0.042000      0.711000     Biso  1.000000 O
   O_113      1.0     0.042000      0.798000      0.711000     Biso  1.000000 O
   O_114      1.0     0.958000      0.202000      0.711000     Biso  1.000000 O
   O_115      1.0     0.202000      0.958000      0.289000     Biso  1.000000 O
   O_116      1.0     0.798000      0.044000      0.289000     Biso  1.000000 O
   O_117      1.0     0.958000      0.798000      0.289000     Biso  1.000000 O
   O_118      1.0     0.044000      0.202000      0.289000     Biso  1.000000 O
   O_119      1.0     0.748000      0.958000      0.220000     Biso  1.000000 O
   O_120      1.0     0.958000      0.252000      0.220000     Biso  1.000000 O
   O_121      1.0     0.042000      0.748000      0.220000     Biso  1.000000 O
   O_122      1.0     0.748000      0.042000      0.779000     Biso  1.000000 O
   O_123      1.0     0.252000      0.958000      0.780000     Biso  1.000000 O
   O_124      1.0     0.042000      0.252000      0.778000     Biso  1.000000 O
   O_125      1.0     0.958000      0.748000      0.779000     Biso  1.000000 O
   O_126      1.0     0.748000      0.958000      0.780000     Biso  1.000000 O
   O_127      1.0     0.252000      0.042000      0.780000     Biso  1.000000 O
   O_128      1.0     0.042000      0.748000      0.780000     Biso  1.000000 O
   O_129      1.0     0.958000      0.252000      0.780000     Biso  1.000000 O
   O_130      1.0     0.252000      0.958000      0.220000     Biso  1.000000 O
   O_131      1.0     0.748000      0.042000      0.221000     Biso  1.000000 O
   O_132      1.0     0.958000      0.748000      0.221000     Biso  1.000000 O
   O_133      1.0     0.042000      0.252000      0.222000     Biso  1.000000 O
   O_134      1.0     0.746000      0.804000      0.436000     Biso  1.000000 O
   O_135      1.0     0.805000      0.256000      0.438000     Biso  1.000000 O
   O_136      1.0     0.194000      0.744000      0.439000     Biso  1.000000 O
   O_137      1.0     0.744000      0.196000      0.561000     Biso  1.000000 O
   O_138      1.0     0.256000      0.806000      0.560000     Biso  1.000000 O
   O_139      1.0     0.196000      0.256000      0.561000     Biso  1.000000 O
   O_140      1.0     0.804000      0.746000      0.564000     Biso  1.000000 O
   O_141      1.0     0.744000      0.806000      0.561000     Biso  1.000000 O
   O_142      1.0     0.256000      0.194000      0.561000     Biso  1.000000 O
   O_143      1.0     0.196000      0.746000      0.564000     Biso  1.000000 O
   O_144      1.0     0.805000      0.256000      0.561000     Biso  1.000000 O
   O_145      1.0     0.254000      0.804000      0.436000     Biso  1.000000 O
   O_146      1.0     0.744000      0.196000      0.438000     Biso  1.000000 O
   O_147      1.0     0.806000      0.744000      0.441000     Biso  1.000000 O
   O_148      1.0     0.196000      0.256000      0.439000     Biso  1.000000 O
   O_149      1.0     0.794000      0.854000      0.439000     Biso  1.000000 O
   O_150      1.0     0.853000      0.206000      0.439000     Biso  1.000000 O
   O_151      1.0     0.146000      0.794000      0.439000     Biso  1.000000 O
   O_152      1.0     0.794000      0.148000      0.561000     Biso  1.000000 O
   O_153      1.0     0.205000      0.852000      0.561000     Biso  1.000000 O
   O_154      1.0     0.148000      0.206000      0.561000     Biso  1.000000 O
   O_155      1.0     0.852000      0.795000      0.561000     Biso  1.000000 O
   O_156      1.0     0.794000      0.854000      0.561000     Biso  1.000000 O
   O_157      1.0     0.206000      0.146000      0.561000     Biso  1.000000 O
   O_158      1.0     0.146000      0.794000      0.561000     Biso  1.000000 O
   O_159      1.0     0.853000      0.206000      0.561000     Biso  1.000000 O
   O_160      1.0     0.206000      0.854000      0.440000     Biso  1.000000 O
   O_161      1.0     0.794000      0.148000      0.439000     Biso  1.000000 O
   O_162      1.0     0.852000      0.796000      0.439000     Biso  1.000000 O
   O_163      1.0     0.148000      0.206000      0.439000     Biso  1.000000 O
   O_164      1.0     0.650000      0.710000      0.217000     Biso  1.000000 O
   O_165      1.0     0.710000      0.350000      0.217000     Biso  1.000000 O
   O_166      1.0     0.290000      0.650000      0.218000     Biso  1.000000 O
   O_167      1.0     0.650000      0.290000      0.781000     Biso  1.000000 O
   O_168      1.0     0.350000      0.710000      0.781000     Biso  1.000000 O
   O_169      1.0     0.290000      0.350000      0.783000     Biso  1.000000 O
   O_170      1.0     0.710000      0.650000      0.781000     Biso  1.000000 O
   O_171      1.0     0.650000      0.710000      0.781000     Biso  1.000000 O
   O_172      1.0     0.350000      0.290000      0.781000     Biso  1.000000 O
   O_173      1.0     0.290000      0.650000      0.783000     Biso  1.000000 O
   O_174      1.0     0.710000      0.350000      0.783000     Biso  1.000000 O
   O_175      1.0     0.350000      0.710000      0.217000     Biso  1.000000 O
   O_176      1.0     0.650000      0.290000      0.217000     Biso  1.000000 O
   O_177      1.0     0.710000      0.650000      0.219000     Biso  1.000000 O
   O_178      1.0     0.290000      0.350000      0.217000     Biso  1.000000 O
   O_179      1.0     0.616000      0.674000      0.286000     Biso  1.000000 O
   O_180      1.0     0.674000      0.384000      0.286000     Biso  1.000000 O
   O_181      1.0     0.326000      0.615000      0.286000     Biso  1.000000 O
   O_182      1.0     0.614000      0.326000      0.714000     Biso  1.000000 O
   O_183      1.0     0.386000      0.674000      0.714000     Biso  1.000000 O
   O_184      1.0     0.326000      0.384000      0.714000     Biso  1.000000 O
   O_185      1.0     0.674000      0.614000      0.714000     Biso  1.000000 O
   O_186      1.0     0.614000      0.674000      0.714000     Biso  1.000000 O
   O_187      1.0     0.386000      0.326000      0.714000     Biso  1.000000 O
   O_188      1.0     0.326000      0.616000      0.714000     Biso  1.000000 O
   O_189      1.0     0.674000      0.384000      0.714000     Biso  1.000000 O
   O_190      1.0     0.384000      0.674000      0.286000     Biso  1.000000 O
   O_191      1.0     0.616000      0.326000      0.286000     Biso  1.000000 O
   O_192      1.0     0.674000      0.614000      0.286000     Biso  1.000000 O
   O_193      1.0     0.326000      0.386000      0.284000     Biso  1.000000 O
   O_194      1.0     0.542000      0.814000      0.439000     Biso  1.000000 O
   O_195      1.0     0.814000      0.458000      0.439000     Biso  1.000000 O
   O_196      1.0     0.186000      0.542000      0.439000     Biso  1.000000 O
   O_197      1.0     0.542000      0.186000      0.558000     Biso  1.000000 O
   O_198      1.0     0.458000      0.814000      0.561000     Biso  1.000000 O
   O_199      1.0     0.186000      0.458000      0.561000     Biso  1.000000 O
   O_200      1.0     0.814000      0.542000      0.561000     Biso  1.000000 O
   O_201      1.0     0.542000      0.814000      0.561000     Biso  1.000000 O
   O_202      1.0     0.458000      0.186000      0.561000     Biso  1.000000 O
   O_203      1.0     0.186000      0.542000      0.561000     Biso  1.000000 O
   O_204      1.0     0.814000      0.458000      0.561000     Biso  1.000000 O
   O_205      1.0     0.458000      0.814000      0.439000     Biso  1.000000 O
   O_206      1.0     0.540000      0.186000      0.436000     Biso  1.000000 O
   O_207      1.0     0.814000      0.542000      0.439000     Biso  1.000000 O
   O_208      1.0     0.187000      0.458000      0.439000     Biso  1.000000 O
   O_209      1.0     0.542000      0.745000      0.439000     Biso  1.000000 O
   O_210      1.0     0.745000      0.458000      0.439000     Biso  1.000000 O
   O_211      1.0     0.255000      0.542000      0.439000     Biso  1.000000 O
   O_212      1.0     0.540000      0.255000      0.561000     Biso  1.000000 O
   O_213      1.0     0.458000      0.745000      0.561000     Biso  1.000000 O
   O_214      1.0     0.256000      0.458000      0.561000     Biso  1.000000 O
   O_215      1.0     0.745000      0.542000      0.561000     Biso  1.000000 O
   O_216      1.0     0.542000      0.746000      0.561000     Biso  1.000000 O
   O_217      1.0     0.456000      0.255000      0.558000     Biso  1.000000 O
   O_218      1.0     0.256000      0.542000      0.561000     Biso  1.000000 O
   O_219      1.0     0.745000      0.458000      0.561000     Biso  1.000000 O
   O_220      1.0     0.458000      0.745000      0.439000     Biso  1.000000 O
   O_221      1.0     0.542000      0.255000      0.439000     Biso  1.000000 O
   O_222      1.0     0.745000      0.542000      0.439000     Biso  1.000000 O
   O_223      1.0     0.256000      0.458000      0.439000     Biso  1.000000 O
   C_224      1.0     0.743000      0.912000      0.297000     Biso  1.000000 C
   C_225      1.0     0.912000      0.257000      0.298000     Biso  1.000000 C
   C_226      1.0     0.088000      0.743000      0.298000     Biso  1.000000 C
   C_227      1.0     0.743000      0.089000      0.702000     Biso  1.000000 C
   C_228      1.0     0.256000      0.912000      0.702000     Biso  1.000000 C
   C_229      1.0     0.089000      0.257000      0.701000     Biso  1.000000 C
   C_230      1.0     0.912000      0.744000      0.702000     Biso  1.000000 C
   C_231      1.0     0.743000      0.912000      0.702000     Biso  1.000000 C
   C_232      1.0     0.257000      0.088000      0.702000     Biso  1.000000 C
   C_233      1.0     0.088000      0.743000      0.703000     Biso  1.000000 C
   C_234      1.0     0.912000      0.257000      0.702000     Biso  1.000000 C
   C_235      1.0     0.256000      0.912000      0.298000     Biso  1.000000 C
   C_236      1.0     0.743000      0.089000      0.298000     Biso  1.000000 C
   C_237      1.0     0.912000      0.744000      0.299000     Biso  1.000000 C
   C_238      1.0     0.089000      0.257000      0.298000     Biso  1.000000 C
   C_239      1.0     0.762000      0.892000      0.344000     Biso  1.000000 C
   C_240      1.0     0.892000      0.238000      0.345000     Biso  1.000000 C
   C_241      1.0     0.108000      0.761000      0.345000     Biso  1.000000 C
   C_242      1.0     0.761000      0.109000      0.655000     Biso  1.000000 C
   C_243      1.0     0.238000      0.892000      0.655000     Biso  1.000000 C
   C_244      1.0     0.109000      0.238000      0.655000     Biso  1.000000 C
   C_245      1.0     0.892000      0.762000      0.655000     Biso  1.000000 C
   C_246      1.0     0.761000      0.892000      0.655000     Biso  1.000000 C
   C_247      1.0     0.239000      0.108000      0.655000     Biso  1.000000 C
   C_248      1.0     0.108000      0.762000      0.656000     Biso  1.000000 C
   C_249      1.0     0.892000      0.238000      0.655000     Biso  1.000000 C
   C_250      1.0     0.238000      0.892000      0.345000     Biso  1.000000 C
   C_251      1.0     0.761000      0.109000      0.345000     Biso  1.000000 C
   C_252      1.0     0.892000      0.762000      0.346000     Biso  1.000000 C
   C_253      1.0     0.109000      0.239000      0.345000     Biso  1.000000 C
   H_254      1.0     0.791000      0.901000      0.359000     Biso  1.000000 H
   H_255      1.0     0.901000      0.209000      0.360000     Biso  1.000000 H
   H_256      1.0     0.098000      0.791000      0.360000     Biso  1.000000 H
   H_257      1.0     0.791000      0.100000      0.640000     Biso  1.000000 H
   H_258      1.0     0.209000      0.901000      0.640000     Biso  1.000000 H
   H_259      1.0     0.100000      0.209000      0.639000     Biso  1.000000 H
   H_260      1.0     0.901000      0.792000      0.641000     Biso  1.000000 H
   H_261      1.0     0.791000      0.902000      0.640000     Biso  1.000000 H
   H_262      1.0     0.209000      0.098000      0.640000     Biso  1.000000 H
   H_263      1.0     0.099000      0.791000      0.641000     Biso  1.000000 H
   H_264      1.0     0.901000      0.209000      0.640000     Biso  1.000000 H
   H_265      1.0     0.209000      0.901000      0.359000     Biso  1.000000 H
   H_266      1.0     0.791000      0.100000      0.360000     Biso  1.000000 H
   H_267      1.0     0.901000      0.792000      0.361000     Biso  1.000000 H
   H_268      1.0     0.100000      0.209000      0.360000     Biso  1.000000 H
   C_269      1.0     0.742000      0.859000      0.370000     Biso  1.000000 C
   C_270      1.0     0.860000      0.259000      0.371000     Biso  1.000000 C
   C_271      1.0     0.140000      0.741000      0.372000     Biso  1.000000 C
   C_272      1.0     0.741000      0.141000      0.628000     Biso  1.000000 C
   C_273      1.0     0.258000      0.860000      0.628000     Biso  1.000000 C
   C_274      1.0     0.141000      0.259000      0.628000     Biso  1.000000 C
   C_275      1.0     0.859000      0.743000      0.629000     Biso  1.000000 C
   C_276      1.0     0.741000      0.860000      0.628000     Biso  1.000000 C
   C_277      1.0     0.259000      0.140000      0.628000     Biso  1.000000 C
   C_278      1.0     0.141000      0.742000      0.629000     Biso  1.000000 C
   C_279      1.0     0.859000      0.259000      0.629000     Biso  1.000000 C
   C_280      1.0     0.258000      0.859000      0.371000     Biso  1.000000 C
   C_281      1.0     0.741000      0.141000      0.372000     Biso  1.000000 C
   C_282      1.0     0.860000      0.742000      0.372000     Biso  1.000000 C
   C_283      1.0     0.141000      0.259000      0.372000     Biso  1.000000 C
   C_284      1.0     0.704000      0.847000      0.351000     Biso  1.000000 C
   C_285      1.0     0.848000      0.297000      0.352000     Biso  1.000000 C
   C_286      1.0     0.152000      0.703000      0.352000     Biso  1.000000 C
   C_287      1.0     0.703000      0.153000      0.647000     Biso  1.000000 C
   C_288      1.0     0.297000      0.848000      0.647000     Biso  1.000000 C
   C_289      1.0     0.153000      0.297000      0.648000     Biso  1.000000 C
   C_290      1.0     0.847000      0.704000      0.648000     Biso  1.000000 C
   C_291      1.0     0.703000      0.848000      0.648000     Biso  1.000000 C
   C_292      1.0     0.297000      0.152000      0.648000     Biso  1.000000 C
   C_293      1.0     0.153000      0.704000      0.649000     Biso  1.000000 C
   C_294      1.0     0.848000      0.297000      0.648000     Biso  1.000000 C
   C_295      1.0     0.296000      0.847000      0.352000     Biso  1.000000 C
   C_296      1.0     0.703000      0.153000      0.352000     Biso  1.000000 C
   C_297      1.0     0.848000      0.704000      0.353000     Biso  1.000000 C
   C_298      1.0     0.153000      0.297000      0.352000     Biso  1.000000 C
   H_299      1.0     0.689000      0.822000      0.372000     Biso  1.000000 H
   H_300      1.0     0.822000      0.312000      0.373000     Biso  1.000000 H
   H_301      1.0     0.177000      0.688000      0.374000     Biso  1.000000 H
   H_302      1.0     0.688000      0.178000      0.626000     Biso  1.000000 H
   H_303      1.0     0.311000      0.823000      0.626000     Biso  1.000000 H
   H_304      1.0     0.178000      0.312000      0.627000     Biso  1.000000 H
   H_305      1.0     0.822000      0.690000      0.627000     Biso  1.000000 H
   H_306      1.0     0.688000      0.823000      0.627000     Biso  1.000000 H
   H_307      1.0     0.312000      0.177000      0.626000     Biso  1.000000 H
   H_308      1.0     0.178000      0.689000      0.627000     Biso  1.000000 H
   H_309      1.0     0.822000      0.312000      0.627000     Biso  1.000000 H
   H_310      1.0     0.311000      0.822000      0.373000     Biso  1.000000 H
   H_311      1.0     0.688000      0.178000      0.373000     Biso  1.000000 H
   H_312      1.0     0.823000      0.689000      0.374000     Biso  1.000000 H
   H_313      1.0     0.178000      0.312000      0.373000     Biso  1.000000 H
   C_314      1.0     0.685000      0.868000      0.305000     Biso  1.000000 C
   C_315      1.0     0.868000      0.316000      0.306000     Biso  1.000000 C
   C_316      1.0     0.132000      0.684000      0.306000     Biso  1.000000 C
   C_317      1.0     0.684000      0.133000      0.693000     Biso  1.000000 C
   C_318      1.0     0.315000      0.868000      0.694000     Biso  1.000000 C
   C_319      1.0     0.132000      0.316000      0.694000     Biso  1.000000 C
   C_320      1.0     0.868000      0.685000      0.694000     Biso  1.000000 C
   C_321      1.0     0.684000      0.868000      0.695000     Biso  1.000000 C
   C_322      1.0     0.315000      0.132000      0.694000     Biso  1.000000 C
   C_323      1.0     0.132000      0.685000      0.694000     Biso  1.000000 C
   C_324      1.0     0.868000      0.316000      0.694000     Biso  1.000000 C
   C_325      1.0     0.315000      0.868000      0.306000     Biso  1.000000 C
   C_326      1.0     0.684000      0.132000      0.306000     Biso  1.000000 C
   C_327      1.0     0.868000      0.685000      0.307000     Biso  1.000000 C
   C_328      1.0     0.133000      0.316000      0.306000     Biso  1.000000 C
   C_329      1.0     0.705000      0.899000      0.278000     Biso  1.000000 C
   C_330      1.0     0.900000      0.295000      0.279000     Biso  1.000000 C
   C_331      1.0     0.100000      0.705000      0.279000     Biso  1.000000 C
   C_332      1.0     0.705000      0.101000      0.721000     Biso  1.000000 C
   C_333      1.0     0.295000      0.900000      0.721000     Biso  1.000000 C
   C_334      1.0     0.101000      0.295000      0.720000     Biso  1.000000 C
   C_335      1.0     0.899000      0.706000      0.721000     Biso  1.000000 C
   C_336      1.0     0.705000      0.900000      0.722000     Biso  1.000000 C
   C_337      1.0     0.295000      0.100000      0.722000     Biso  1.000000 C
   C_338      1.0     0.101000      0.705000      0.722000     Biso  1.000000 C
   C_339      1.0     0.899000      0.295000      0.721000     Biso  1.000000 C
   C_340      1.0     0.295000      0.899000      0.279000     Biso  1.000000 C
   C_341      1.0     0.705000      0.101000      0.279000     Biso  1.000000 C
   C_342      1.0     0.899000      0.706000      0.280000     Biso  1.000000 C
   C_343      1.0     0.101000      0.295000      0.279000     Biso  1.000000 C
   H_344      1.0     0.692000      0.915000      0.242000     Biso  1.000000 H
   H_345      1.0     0.915000      0.308000      0.242000     Biso  1.000000 H
   H_346      1.0     0.085000      0.692000      0.242000     Biso  1.000000 H
   H_347      1.0     0.691000      0.085000      0.757000     Biso  1.000000 H
   H_348      1.0     0.308000      0.915000      0.758000     Biso  1.000000 H
   H_349      1.0     0.085000      0.308000      0.757000     Biso  1.000000 H
   H_350      1.0     0.915000      0.692000      0.757000     Biso  1.000000 H
   H_351      1.0     0.692000      0.915000      0.759000     Biso  1.000000 H
   H_352      1.0     0.308000      0.085000      0.759000     Biso  1.000000 H
   H_353      1.0     0.085000      0.692000      0.758000     Biso  1.000000 H
   H_354      1.0     0.915000      0.308000      0.758000     Biso  1.000000 H
   H_355      1.0     0.308000      0.915000      0.242000     Biso  1.000000 H
   H_356      1.0     0.692000      0.085000      0.242000     Biso  1.000000 H
   H_357      1.0     0.915000      0.692000      0.243000     Biso  1.000000 H
   H_358      1.0     0.085000      0.308000      0.243000     Biso  1.000000 H
   C_359      1.0     0.620000      0.745000      0.296000     Biso  1.000000 C
   C_360      1.0     0.745000      0.380000      0.296000     Biso  1.000000 C
   C_361      1.0     0.255000      0.620000      0.296000     Biso  1.000000 C
   C_362      1.0     0.619000      0.255000      0.703000     Biso  1.000000 C
   C_363      1.0     0.380000      0.745000      0.703000     Biso  1.000000 C
   C_364      1.0     0.255000      0.380000      0.704000     Biso  1.000000 C
   C_365      1.0     0.745000      0.620000      0.703000     Biso  1.000000 C
   C_366      1.0     0.620000      0.745000      0.703000     Biso  1.000000 C
   C_367      1.0     0.380000      0.255000      0.703000     Biso  1.000000 C
   C_368      1.0     0.255000      0.620000      0.704000     Biso  1.000000 C
   C_369      1.0     0.745000      0.380000      0.704000     Biso  1.000000 C
   C_370      1.0     0.380000      0.745000      0.296000     Biso  1.000000 C
   C_371      1.0     0.620000      0.255000      0.296000     Biso  1.000000 C
   C_372      1.0     0.745000      0.620000      0.297000     Biso  1.000000 C
   C_373      1.0     0.256000      0.381000      0.295000     Biso  1.000000 C
   C_374      1.0     0.594000      0.744000      0.344000     Biso  1.000000 C
   C_375      1.0     0.744000      0.406000      0.344000     Biso  1.000000 C
   C_376      1.0     0.256000      0.594000      0.344000     Biso  1.000000 C
   C_377      1.0     0.593000      0.256000      0.655000     Biso  1.000000 C
   C_378      1.0     0.407000      0.744000      0.656000     Biso  1.000000 C
   C_379      1.0     0.257000      0.406000      0.656000     Biso  1.000000 C
   C_380      1.0     0.744000      0.594000      0.655000     Biso  1.000000 C
   C_381      1.0     0.593000      0.744000      0.656000     Biso  1.000000 C
   C_382      1.0     0.406000      0.256000      0.655000     Biso  1.000000 C
   C_383      1.0     0.256000      0.594000      0.656000     Biso  1.000000 C
   C_384      1.0     0.744000      0.406000      0.656000     Biso  1.000000 C
   C_385      1.0     0.406000      0.743000      0.344000     Biso  1.000000 C
   C_386      1.0     0.593000      0.256000      0.343000     Biso  1.000000 C
   C_387      1.0     0.744000      0.594000      0.344000     Biso  1.000000 C
   C_388      1.0     0.257000      0.407000      0.343000     Biso  1.000000 C
   H_389      1.0     0.581000      0.715000      0.358000     Biso  1.000000 H
   H_390      1.0     0.715000      0.419000      0.358000     Biso  1.000000 H
   H_391      1.0     0.285000      0.581000      0.359000     Biso  1.000000 H
   H_392      1.0     0.580000      0.285000      0.640000     Biso  1.000000 H
   H_393      1.0     0.419000      0.716000      0.641000     Biso  1.000000 H
   H_394      1.0     0.285000      0.419000      0.642000     Biso  1.000000 H
   H_395      1.0     0.716000      0.581000      0.641000     Biso  1.000000 H
   H_396      1.0     0.581000      0.716000      0.641000     Biso  1.000000 H
   H_397      1.0     0.419000      0.284000      0.640000     Biso  1.000000 H
   H_398      1.0     0.285000      0.581000      0.642000     Biso  1.000000 H
   H_399      1.0     0.715000      0.419000      0.642000     Biso  1.000000 H
   H_400      1.0     0.419000      0.715000      0.358000     Biso  1.000000 H
   H_401      1.0     0.581000      0.285000      0.358000     Biso  1.000000 H
   H_402      1.0     0.716000      0.581000      0.359000     Biso  1.000000 H
   H_403      1.0     0.285000      0.419000      0.357000     Biso  1.000000 H
   C_404      1.0     0.583000      0.780000      0.372000     Biso  1.000000 C
   C_405      1.0     0.780000      0.417000      0.372000     Biso  1.000000 C
   C_406      1.0     0.220000      0.583000      0.372000     Biso  1.000000 C
   C_407      1.0     0.582000      0.220000      0.627000     Biso  1.000000 C
   C_408      1.0     0.417000      0.780000      0.628000     Biso  1.000000 C
   C_409      1.0     0.221000      0.417000      0.628000     Biso  1.000000 C
   C_410      1.0     0.780000      0.583000      0.628000     Biso  1.000000 C
   C_411      1.0     0.583000      0.780000      0.628000     Biso  1.000000 C
   C_412      1.0     0.416000      0.220000      0.627000     Biso  1.000000 C
   C_413      1.0     0.221000      0.583000      0.628000     Biso  1.000000 C
   C_414      1.0     0.780000      0.417000      0.628000     Biso  1.000000 C
   C_415      1.0     0.417000      0.779000      0.372000     Biso  1.000000 C
   C_416      1.0     0.583000      0.220000      0.371000     Biso  1.000000 C
   C_417      1.0     0.780000      0.583000      0.372000     Biso  1.000000 C
   C_418      1.0     0.221000      0.417000      0.371000     Biso  1.000000 C
   C_419      1.0     0.599000      0.816000      0.352000     Biso  1.000000 C
   C_420      1.0     0.816000      0.401000      0.352000     Biso  1.000000 C
   C_421      1.0     0.184000      0.599000      0.352000     Biso  1.000000 C
   C_422      1.0     0.598000      0.184000      0.647000     Biso  1.000000 C
   C_423      1.0     0.401000      0.817000      0.647000     Biso  1.000000 C
   C_424      1.0     0.184000      0.401000      0.648000     Biso  1.000000 C
   C_425      1.0     0.817000      0.600000      0.647000     Biso  1.000000 C
   C_426      1.0     0.599000      0.817000      0.648000     Biso  1.000000 C
   C_427      1.0     0.400000      0.183000      0.647000     Biso  1.000000 C
   C_428      1.0     0.184000      0.599000      0.648000     Biso  1.000000 C
   C_429      1.0     0.816000      0.401000      0.648000     Biso  1.000000 C
   C_430      1.0     0.401000      0.816000      0.352000     Biso  1.000000 C
   C_431      1.0     0.599000      0.184000      0.351000     Biso  1.000000 C
   C_432      1.0     0.817000      0.600000      0.353000     Biso  1.000000 C
   C_433      1.0     0.184000      0.401000      0.352000     Biso  1.000000 C
   H_434      1.0     0.590000      0.844000      0.374000     Biso  1.000000 H
   H_435      1.0     0.844000      0.410000      0.374000     Biso  1.000000 H
   H_436      1.0     0.156000      0.590000      0.374000     Biso  1.000000 H
   H_437      1.0     0.589000      0.156000      0.625000     Biso  1.000000 H
   H_438      1.0     0.409000      0.844000      0.626000     Biso  1.000000 H
   H_439      1.0     0.156000      0.410000      0.626000     Biso  1.000000 H
   H_440      1.0     0.844000      0.591000      0.625000     Biso  1.000000 H
   H_441      1.0     0.590000      0.845000      0.626000     Biso  1.000000 H
   H_442      1.0     0.409000      0.156000      0.625000     Biso  1.000000 H
   H_443      1.0     0.156000      0.590000      0.625000     Biso  1.000000 H
   H_444      1.0     0.844000      0.410000      0.626000     Biso  1.000000 H
   H_445      1.0     0.409000      0.844000      0.374000     Biso  1.000000 H
   H_446      1.0     0.590000      0.156000      0.373000     Biso  1.000000 H
   H_447      1.0     0.844000      0.591000      0.375000     Biso  1.000000 H
   H_448      1.0     0.157000      0.410000      0.375000     Biso  1.000000 H
   C_449      1.0     0.626000      0.818000      0.305000     Biso  1.000000 C
   C_450      1.0     0.818000      0.374000      0.305000     Biso  1.000000 C
   C_451      1.0     0.182000      0.626000      0.305000     Biso  1.000000 C
   C_452      1.0     0.625000      0.182000      0.694000     Biso  1.000000 C
   C_453      1.0     0.374000      0.818000      0.695000     Biso  1.000000 C
   C_454      1.0     0.182000      0.375000      0.695000     Biso  1.000000 C
   C_455      1.0     0.818000      0.626000      0.695000     Biso  1.000000 C
   C_456      1.0     0.626000      0.818000      0.695000     Biso  1.000000 C
   C_457      1.0     0.374000      0.182000      0.695000     Biso  1.000000 C
   C_458      1.0     0.182000      0.626000      0.695000     Biso  1.000000 C
   C_459      1.0     0.818000      0.374000      0.695000     Biso  1.000000 C
   C_460      1.0     0.374000      0.818000      0.305000     Biso  1.000000 C
   C_461      1.0     0.625000      0.182000      0.304000     Biso  1.000000 C
   C_462      1.0     0.818000      0.626000      0.306000     Biso  1.000000 C
   C_463      1.0     0.183000      0.375000      0.305000     Biso  1.000000 C
   C_464      1.0     0.636000      0.782000      0.277000     Biso  1.000000 C
   C_465      1.0     0.782000      0.364000      0.277000     Biso  1.000000 C
   C_466      1.0     0.218000      0.636000      0.277000     Biso  1.000000 C
   C_467      1.0     0.635000      0.218000      0.722000     Biso  1.000000 C
   C_468      1.0     0.364000      0.782000      0.722000     Biso  1.000000 C
   C_469      1.0     0.218000      0.364000      0.723000     Biso  1.000000 C
   C_470      1.0     0.781000      0.636000      0.722000     Biso  1.000000 C
   C_471      1.0     0.636000      0.782000      0.723000     Biso  1.000000 C
   C_472      1.0     0.364000      0.219000      0.723000     Biso  1.000000 C
   C_473      1.0     0.218000      0.636000      0.723000     Biso  1.000000 C
   C_474      1.0     0.782000      0.364000      0.723000     Biso  1.000000 C
   C_475      1.0     0.364000      0.781000      0.277000     Biso  1.000000 C
   C_476      1.0     0.636000      0.218000      0.277000     Biso  1.000000 C
   C_477      1.0     0.781000      0.636000      0.278000     Biso  1.000000 C
   C_478      1.0     0.219000      0.365000      0.276000     Biso  1.000000 C
   H_479      1.0     0.656000      0.782000      0.240000     Biso  1.000000 H
   H_480      1.0     0.782000      0.344000      0.240000     Biso  1.000000 H
   H_481      1.0     0.218000      0.656000      0.240000     Biso  1.000000 H
   H_482      1.0     0.655000      0.218000      0.759000     Biso  1.000000 H
   H_483      1.0     0.344000      0.781000      0.760000     Biso  1.000000 H
   H_484      1.0     0.218000      0.344000      0.760000     Biso  1.000000 H
   H_485      1.0     0.781000      0.656000      0.759000     Biso  1.000000 H
   H_486      1.0     0.656000      0.781000      0.760000     Biso  1.000000 H
   H_487      1.0     0.344000      0.219000      0.760000     Biso  1.000000 H
   H_488      1.0     0.218000      0.656000      0.760000     Biso  1.000000 H
   H_489      1.0     0.782000      0.344000      0.760000     Biso  1.000000 H
   H_490      1.0     0.344000      0.782000      0.240000     Biso  1.000000 H
   H_491      1.0     0.656000      0.218000      0.240000     Biso  1.000000 H
   H_492      1.0     0.781000      0.656000      0.241000     Biso  1.000000 H
   H_493      1.0     0.218000      0.345000      0.239000     Biso  1.000000 H
   C_494      1.0     0.643000      0.857000      0.284000     Biso  1.000000 C
   C_495      1.0     0.857000      0.358000      0.284000     Biso  1.000000 C
   C_496      1.0     0.143000      0.642000      0.284000     Biso  1.000000 C
   C_497      1.0     0.642000      0.143000      0.715000     Biso  1.000000 C
   C_498      1.0     0.357000      0.857000      0.716000     Biso  1.000000 C
   C_499      1.0     0.143000      0.358000      0.716000     Biso  1.000000 C
   C_500      1.0     0.857000      0.643000      0.716000     Biso  1.000000 C
   C_501      1.0     0.643000      0.857000      0.717000     Biso  1.000000 C
   C_502      1.0     0.357000      0.143000      0.716000     Biso  1.000000 C
   C_503      1.0     0.143000      0.643000      0.716000     Biso  1.000000 C
   C_504      1.0     0.857000      0.358000      0.716000     Biso  1.000000 C
   C_505      1.0     0.357000      0.857000      0.284000     Biso  1.000000 C
   C_506      1.0     0.642000      0.143000      0.284000     Biso  1.000000 C
   C_507      1.0     0.857000      0.643000      0.285000     Biso  1.000000 C
   C_508      1.0     0.143000      0.358000      0.284000     Biso  1.000000 C
   H_509      1.0     0.622000      0.882000      0.297000     Biso  1.000000 H
   H_510      1.0     0.882000      0.378000      0.297000     Biso  1.000000 H
   H_511      1.0     0.118000      0.622000      0.297000     Biso  1.000000 H
   H_512      1.0     0.621000      0.118000      0.702000     Biso  1.000000 H
   H_513      1.0     0.378000      0.882000      0.703000     Biso  1.000000 H
   H_514      1.0     0.118000      0.378000      0.703000     Biso  1.000000 H
   H_515      1.0     0.882000      0.623000      0.703000     Biso  1.000000 H
   H_516      1.0     0.622000      0.882000      0.704000     Biso  1.000000 H
   H_517      1.0     0.378000      0.118000      0.704000     Biso  1.000000 H
   H_518      1.0     0.118000      0.622000      0.702000     Biso  1.000000 H
   H_519      1.0     0.882000      0.378000      0.703000     Biso  1.000000 H
   H_520      1.0     0.378000      0.882000      0.297000     Biso  1.000000 H
   H_521      1.0     0.622000      0.118000      0.296000     Biso  1.000000 H
   H_522      1.0     0.882000      0.623000      0.297000     Biso  1.000000 H
   H_523      1.0     0.119000      0.378000      0.297000     Biso  1.000000 H
   H_524      1.0     0.643000      0.857000      0.236000     Biso  1.000000 H
   H_525      1.0     0.858000      0.357000      0.236000     Biso  1.000000 H
   H_526      1.0     0.142000      0.643000      0.237000     Biso  1.000000 H
   H_527      1.0     0.642000      0.142000      0.762000     Biso  1.000000 H
   H_528      1.0     0.356000      0.857000      0.763000     Biso  1.000000 H
   H_529      1.0     0.142000      0.357000      0.763000     Biso  1.000000 H
   H_530      1.0     0.857000      0.644000      0.763000     Biso  1.000000 H
   H_531      1.0     0.643000      0.857000      0.764000     Biso  1.000000 H
   H_532      1.0     0.357000      0.143000      0.764000     Biso  1.000000 H
   H_533      1.0     0.142000      0.643000      0.763000     Biso  1.000000 H
   H_534      1.0     0.858000      0.357000      0.764000     Biso  1.000000 H
   H_535      1.0     0.357000      0.858000      0.237000     Biso  1.000000 H
   H_536      1.0     0.643000      0.142000      0.236000     Biso  1.000000 H
   H_537      1.0     0.857000      0.644000      0.237000     Biso  1.000000 H
   H_538      1.0     0.143000      0.357000      0.237000     Biso  1.000000 H
   C_539      1.0     0.765000      0.945000      0.266000     Biso  1.000000 C
   C_540      1.0     0.945000      0.235000      0.267000     Biso  1.000000 C
   C_541      1.0     0.055000      0.765000      0.266000     Biso  1.000000 C
   C_542      1.0     0.765000      0.056000      0.733000     Biso  1.000000 C
   C_543      1.0     0.235000      0.945000      0.733000     Biso  1.000000 C
   C_544      1.0     0.055000      0.235000      0.732000     Biso  1.000000 C
   C_545      1.0     0.945000      0.765000      0.733000     Biso  1.000000 C
   C_546      1.0     0.765000      0.945000      0.734000     Biso  1.000000 C
   C_547      1.0     0.235000      0.055000      0.734000     Biso  1.000000 C
   C_548      1.0     0.055000      0.765000      0.734000     Biso  1.000000 C
   C_549      1.0     0.945000      0.235000      0.733000     Biso  1.000000 C
   C_550      1.0     0.235000      0.945000      0.267000     Biso  1.000000 C
   C_551      1.0     0.765000      0.056000      0.267000     Biso  1.000000 C
   C_552      1.0     0.945000      0.765000      0.267000     Biso  1.000000 C
   C_553      1.0     0.056000      0.235000      0.268000     Biso  1.000000 C
   C_554      1.0     0.762000      0.837000      0.419000     Biso  1.000000 C
   C_555      1.0     0.837000      0.239000      0.420000     Biso  1.000000 C
   C_556      1.0     0.162000      0.761000      0.421000     Biso  1.000000 C
   C_557      1.0     0.761000      0.164000      0.580000     Biso  1.000000 C
   C_558      1.0     0.238000      0.838000      0.579000     Biso  1.000000 C
   C_559      1.0     0.164000      0.239000      0.579000     Biso  1.000000 C
   C_560      1.0     0.837000      0.763000      0.581000     Biso  1.000000 C
   C_561      1.0     0.761000      0.838000      0.579000     Biso  1.000000 C
   C_562      1.0     0.239000      0.162000      0.579000     Biso  1.000000 C
   C_563      1.0     0.163000      0.762000      0.580000     Biso  1.000000 C
   C_564      1.0     0.837000      0.239000      0.580000     Biso  1.000000 C
   C_565      1.0     0.238000      0.837000      0.420000     Biso  1.000000 C
   C_566      1.0     0.761000      0.163000      0.420000     Biso  1.000000 C
   C_567      1.0     0.838000      0.762000      0.421000     Biso  1.000000 C
   C_568      1.0     0.164000      0.239000      0.421000     Biso  1.000000 C
   C_569      1.0     0.630000      0.707000      0.264000     Biso  1.000000 C
   C_570      1.0     0.707000      0.370000      0.264000     Biso  1.000000 C
   C_571      1.0     0.293000      0.629000      0.264000     Biso  1.000000 C
   C_572      1.0     0.629000      0.293000      0.735000     Biso  1.000000 C
   C_573      1.0     0.371000      0.707000      0.735000     Biso  1.000000 C
   C_574      1.0     0.293000      0.370000      0.736000     Biso  1.000000 C
   C_575      1.0     0.707000      0.629000      0.735000     Biso  1.000000 C
   C_576      1.0     0.629000      0.707000      0.735000     Biso  1.000000 C
   C_577      1.0     0.371000      0.293000      0.735000     Biso  1.000000 C
   C_578      1.0     0.293000      0.630000      0.736000     Biso  1.000000 C
   C_579      1.0     0.707000      0.370000      0.736000     Biso  1.000000 C
   C_580      1.0     0.370000      0.707000      0.264000     Biso  1.000000 C
   C_581      1.0     0.629000      0.293000      0.264000     Biso  1.000000 C
   C_582      1.0     0.707000      0.629000      0.265000     Biso  1.000000 C
   C_583      1.0     0.294000      0.371000      0.263000     Biso  1.000000 C
   C_584      1.0     0.554000      0.779000      0.421000     Biso  1.000000 C
   C_585      1.0     0.779000      0.446000      0.421000     Biso  1.000000 C
   C_586      1.0     0.221000      0.554000      0.421000     Biso  1.000000 C
   C_587      1.0     0.552000      0.221000      0.578000     Biso  1.000000 C
   C_588      1.0     0.447000      0.780000      0.579000     Biso  1.000000 C
   C_589      1.0     0.221000      0.447000      0.579000     Biso  1.000000 C
   C_590      1.0     0.780000      0.553000      0.579000     Biso  1.000000 C
   C_591      1.0     0.553000      0.780000      0.579000     Biso  1.000000 C
   C_592      1.0     0.446000      0.220000      0.578000     Biso  1.000000 C
   C_593      1.0     0.221000      0.554000      0.579000     Biso  1.000000 C
   C_594      1.0     0.779000      0.446000      0.579000     Biso  1.000000 C
   C_595      1.0     0.446000      0.779000      0.421000     Biso  1.000000 C
   C_596      1.0     0.553000      0.221000      0.419000     Biso  1.000000 C
   C_597      1.0     0.780000      0.554000      0.421000     Biso  1.000000 C
   C_598      1.0     0.221000      0.447000      0.421000     Biso  1.000000 C
   O_599      1.0     0.854000      0.043000      0.200000     Biso  1.000000 O
   O_600      1.0     0.042000      0.146000      0.200000     Biso  1.000000 O
   O_601      1.0     0.958000      0.854000      0.200000     Biso  1.000000 O
   O_602      1.0     0.854000      0.958000      0.799000     Biso  1.000000 O
   O_603      1.0     0.146000      0.042000      0.799000     Biso  1.000000 O
   O_604      1.0     0.958000      0.146000      0.800000     Biso  1.000000 O
   O_605      1.0     0.042000      0.854000      0.800000     Biso  1.000000 O
   O_606      1.0     0.854000      0.043000      0.800000     Biso  1.000000 O
   O_607      1.0     0.146000      0.956000      0.800000     Biso  1.000000 O
   O_608      1.0     0.958000      0.854000      0.800000     Biso  1.000000 O
   O_609      1.0     0.042000      0.146000      0.800000     Biso  1.000000 O
   O_610      1.0     0.146000      0.042000      0.201000     Biso  1.000000 O
   O_611      1.0     0.854000      0.958000      0.201000     Biso  1.000000 O
   O_612      1.0     0.042000      0.854000      0.201000     Biso  1.000000 O
   O_613      1.0     0.958000      0.146000      0.200000     Biso  1.000000 O
   O_614      1.0     0.804000      0.044000      0.131000     Biso  1.000000 O
   O_615      1.0     0.044000      0.196000      0.132000     Biso  1.000000 O
   O_616      1.0     0.956000      0.804000      0.131000     Biso  1.000000 O
   O_617      1.0     0.805000      0.958000      0.869000     Biso  1.000000 O
   O_618      1.0     0.194000      0.042000      0.869000     Biso  1.000000 O
   O_619      1.0     0.958000      0.195000      0.869000     Biso  1.000000 O
   O_620      1.0     0.042000      0.805000      0.869000     Biso  1.000000 O
   O_621      1.0     0.804000      0.044000      0.868000     Biso  1.000000 O
   O_622      1.0     0.196000      0.956000      0.869000     Biso  1.000000 O
   O_623      1.0     0.956000      0.804000      0.869000     Biso  1.000000 O
   O_624      1.0     0.044000      0.196000      0.867000     Biso  1.000000 O
   O_625      1.0     0.195000      0.042000      0.131000     Biso  1.000000 O
   O_626      1.0     0.805000      0.958000      0.131000     Biso  1.000000 O
   O_627      1.0     0.042000      0.805000      0.131000     Biso  1.000000 O
   O_628      1.0     0.958000      0.195000      0.131000     Biso  1.000000 O
   C_629      1.0     0.837000      0.057000      0.155000     Biso  1.000000 C
   C_630      1.0     0.057000      0.163000      0.155000     Biso  1.000000 C
   C_631      1.0     0.944000      0.837000      0.155000     Biso  1.000000 C
   C_632      1.0     0.837000      0.945000      0.845000     Biso  1.000000 C
   C_633      1.0     0.162000      0.055000      0.845000     Biso  1.000000 C
   C_634      1.0     0.945000      0.163000      0.845000     Biso  1.000000 C
   C_635      1.0     0.056000      0.837000      0.846000     Biso  1.000000 C
   C_636      1.0     0.837000      0.057000      0.845000     Biso  1.000000 C
   C_637      1.0     0.163000      0.943000      0.845000     Biso  1.000000 C
   C_638      1.0     0.943000      0.837000      0.845000     Biso  1.000000 C
   C_639      1.0     0.057000      0.163000      0.844000     Biso  1.000000 C
   C_640      1.0     0.163000      0.056000      0.155000     Biso  1.000000 C
   C_641      1.0     0.837000      0.945000      0.155000     Biso  1.000000 C
   C_642      1.0     0.056000      0.837000      0.155000     Biso  1.000000 C
   C_643      1.0     0.944000      0.163000      0.155000     Biso  1.000000 C
   C_644      1.0     0.856000      0.093000      0.127000     Biso  1.000000 C
   C_645      1.0     0.092000      0.144000      0.127000     Biso  1.000000 C
   C_646      1.0     0.908000      0.856000      0.127000     Biso  1.000000 C
   C_647      1.0     0.856000      0.908000      0.873000     Biso  1.000000 C
   C_648      1.0     0.143000      0.092000      0.873000     Biso  1.000000 C
   C_649      1.0     0.908000      0.144000      0.873000     Biso  1.000000 C
   C_650      1.0     0.092000      0.856000      0.873000     Biso  1.000000 C
   C_651      1.0     0.856000      0.093000      0.873000     Biso  1.000000 C
   C_652      1.0     0.144000      0.907000      0.873000     Biso  1.000000 C
   C_653      1.0     0.908000      0.857000      0.873000     Biso  1.000000 C
   C_654      1.0     0.092000      0.144000      0.872000     Biso  1.000000 C
   C_655      1.0     0.143000      0.092000      0.127000     Biso  1.000000 C
   C_656      1.0     0.857000      0.908000      0.127000     Biso  1.000000 C
   C_657      1.0     0.092000      0.857000      0.127000     Biso  1.000000 C
   C_658      1.0     0.908000      0.144000      0.127000     Biso  1.000000 C
   C_659      1.0     0.891000      0.109000      0.151000     Biso  1.000000 C
   C_660      1.0     0.109000      0.109000      0.151000     Biso  1.000000 C
   C_661      1.0     0.891000      0.891000      0.152000     Biso  1.000000 C
   C_662      1.0     0.891000      0.892000      0.848000     Biso  1.000000 C
   C_663      1.0     0.109000      0.108000      0.848000     Biso  1.000000 C
   C_664      1.0     0.892000      0.109000      0.849000     Biso  1.000000 C
   C_665      1.0     0.109000      0.891000      0.849000     Biso  1.000000 C
   H_666      1.0     0.905000      0.095000      0.189000     Biso  1.000000 H
   H_667      1.0     0.095000      0.095000      0.190000     Biso  1.000000 H
   H_668      1.0     0.905000      0.905000      0.190000     Biso  1.000000 H
   H_669      1.0     0.905000      0.905000      0.810000     Biso  1.000000 H
   H_670      1.0     0.095000      0.095000      0.810000     Biso  1.000000 H
   H_671      1.0     0.905000      0.095000      0.811000     Biso  1.000000 H
   H_672      1.0     0.095000      0.904000      0.811000     Biso  1.000000 H
   C_673      1.0     0.839000      0.111000      0.079000     Biso  1.000000 C
   C_674      1.0     0.111000      0.161000      0.079000     Biso  1.000000 C
   C_675      1.0     0.889000      0.839000      0.079000     Biso  1.000000 C
   C_676      1.0     0.838000      0.890000      0.921000     Biso  1.000000 C
   C_677      1.0     0.161000      0.110000      0.921000     Biso  1.000000 C
   C_678      1.0     0.890000      0.162000      0.922000     Biso  1.000000 C
   C_679      1.0     0.110000      0.838000      0.922000     Biso  1.000000 C
   C_680      1.0     0.839000      0.111000      0.921000     Biso  1.000000 C
   C_681      1.0     0.162000      0.889000      0.922000     Biso  1.000000 C
   C_682      1.0     0.889000      0.839000      0.921000     Biso  1.000000 C
   C_683      1.0     0.110000      0.161000      0.921000     Biso  1.000000 C
   C_684      1.0     0.162000      0.110000      0.078000     Biso  1.000000 C
   C_685      1.0     0.839000      0.891000      0.079000     Biso  1.000000 C
   C_686      1.0     0.110000      0.838000      0.079000     Biso  1.000000 C
   C_687      1.0     0.890000      0.162000      0.079000     Biso  1.000000 C
   H_688      1.0     0.811000      0.098000      0.061000     Biso  1.000000 H
   H_689      1.0     0.097000      0.189000      0.061000     Biso  1.000000 H
   H_690      1.0     0.903000      0.811000      0.061000     Biso  1.000000 H
   H_691      1.0     0.811000      0.904000      0.939000     Biso  1.000000 H
   H_692      1.0     0.188000      0.096000      0.939000     Biso  1.000000 H
   H_693      1.0     0.904000      0.189000      0.940000     Biso  1.000000 H
   H_694      1.0     0.096000      0.811000      0.940000     Biso  1.000000 H
   H_695      1.0     0.811000      0.098000      0.939000     Biso  1.000000 H
   H_696      1.0     0.189000      0.902000      0.939000     Biso  1.000000 H
   H_697      1.0     0.903000      0.811000      0.939000     Biso  1.000000 H
   H_698      1.0     0.097000      0.189000      0.939000     Biso  1.000000 H
   H_699      1.0     0.189000      0.096000      0.060000     Biso  1.000000 H
   H_700      1.0     0.811000      0.904000      0.061000     Biso  1.000000 H
   H_701      1.0     0.096000      0.811000      0.061000     Biso  1.000000 H
   H_702      1.0     0.904000      0.189000      0.061000     Biso  1.000000 H
   C_703      1.0     0.855000      0.146000      0.054000     Biso  1.000000 C
   C_704      1.0     0.145000      0.145000      0.054000     Biso  1.000000 C
   C_705      1.0     0.855000      0.856000      0.054000     Biso  1.000000 C
   C_706      1.0     0.855000      0.856000      0.946000     Biso  1.000000 C
   C_707      1.0     0.145000      0.145000      0.946000     Biso  1.000000 C
   C_708      1.0     0.855000      0.146000      0.946000     Biso  1.000000 C
   C_709      1.0     0.145000      0.854000      0.946000     Biso  1.000000 C
   C_710      1.0     0.837000      0.164000      0.000000     Biso  1.000000 C
   C_711      1.0     0.164000      0.163000     -0.000000     Biso  1.000000 C
   C_712      1.0     0.836000      0.837000     -0.000000     Biso  1.000000 C
   H_713      1.0     0.842000      0.197000      0.000000     Biso  1.000000 H
   H_714      1.0     0.196000      0.158000     -0.000000     Biso  1.000000 H
   H_715      1.0     0.803000      0.842000      0.000000     Biso  1.000000 H
   H_716      1.0     0.841000      0.804000      0.000000     Biso  1.000000 H
   H_717      1.0     0.159000      0.196000     -0.000000     Biso  1.000000 H
   H_718      1.0     0.804000      0.159000      0.000000     Biso  1.000000 H
   H_719      1.0     0.196000      0.840000      0.000000     Biso  1.000000 H
   O_720      1.0     0.608000      0.668000      0.131000     Biso  1.000000 O
   O_721      1.0     0.670000      0.392000      0.131000     Biso  1.000000 O
   O_722      1.0     0.330000      0.608000      0.131000     Biso  1.000000 O
   O_723      1.0     0.608000      0.330000      0.869000     Biso  1.000000 O
   O_724      1.0     0.392000      0.670000      0.869000     Biso  1.000000 O
   O_725      1.0     0.330000      0.392000      0.869000     Biso  1.000000 O
   O_726      1.0     0.670000      0.608000      0.869000     Biso  1.000000 O
   O_727      1.0     0.608000      0.670000      0.869000     Biso  1.000000 O
   O_728      1.0     0.392000      0.330000      0.869000     Biso  1.000000 O
   O_729      1.0     0.330000      0.608000      0.869000     Biso  1.000000 O
   O_730      1.0     0.670000      0.392000      0.869000     Biso  1.000000 O
   O_731      1.0     0.392000      0.668000      0.130000     Biso  1.000000 O
   O_732      1.0     0.608000      0.330000      0.131000     Biso  1.000000 O
   O_733      1.0     0.670000      0.608000      0.131000     Biso  1.000000 O
   O_734      1.0     0.330000      0.392000      0.128000     Biso  1.000000 O
   O_735      1.0     0.574000      0.634000      0.201000     Biso  1.000000 O
   O_736      1.0     0.634000      0.426000      0.200000     Biso  1.000000 O
   O_737      1.0     0.366000      0.574000      0.199000     Biso  1.000000 O
   O_738      1.0     0.574000      0.366000      0.800000     Biso  1.000000 O
   O_739      1.0     0.426000      0.634000      0.800000     Biso  1.000000 O
   O_740      1.0     0.366000      0.426000      0.800000     Biso  1.000000 O
   O_741      1.0     0.634000      0.574000      0.800000     Biso  1.000000 O
   O_742      1.0     0.574000      0.634000      0.800000     Biso  1.000000 O
   O_743      1.0     0.426000      0.366000      0.800000     Biso  1.000000 O
   O_744      1.0     0.366000      0.574000      0.800000     Biso  1.000000 O
   O_745      1.0     0.634000      0.426000      0.800000     Biso  1.000000 O
   O_746      1.0     0.426000      0.634000      0.201000     Biso  1.000000 O
   O_747      1.0     0.574000      0.366000      0.200000     Biso  1.000000 O
   O_748      1.0     0.634000      0.574000      0.200000     Biso  1.000000 O
   O_749      1.0     0.366000      0.426000      0.197000     Biso  1.000000 O
   C_750      1.0     0.576000      0.655000      0.155000     Biso  1.000000 C
   C_751      1.0     0.656000      0.424000      0.154000     Biso  1.000000 C
   C_752      1.0     0.344000      0.576000      0.154000     Biso  1.000000 C
   C_753      1.0     0.576000      0.344000      0.845000     Biso  1.000000 C
   C_754      1.0     0.424000      0.656000      0.846000     Biso  1.000000 C
   C_755      1.0     0.344000      0.424000      0.845000     Biso  1.000000 C
   C_756      1.0     0.656000      0.576000      0.845000     Biso  1.000000 C
   C_757      1.0     0.576000      0.656000      0.846000     Biso  1.000000 C
   C_758      1.0     0.424000      0.344000      0.846000     Biso  1.000000 C
   C_759      1.0     0.344000      0.576000      0.845000     Biso  1.000000 C
   C_760      1.0     0.656000      0.424000      0.845000     Biso  1.000000 C
   C_761      1.0     0.424000      0.655000      0.155000     Biso  1.000000 C
   C_762      1.0     0.576000      0.344000      0.154000     Biso  1.000000 C
   C_763      1.0     0.656000      0.576000      0.154000     Biso  1.000000 C
   C_764      1.0     0.344000      0.424000      0.152000     Biso  1.000000 C
   C_765      1.0     0.537000      0.667000      0.128000     Biso  1.000000 C
   C_766      1.0     0.668000      0.463000      0.127000     Biso  1.000000 C
   C_767      1.0     0.332000      0.537000      0.127000     Biso  1.000000 C
   C_768      1.0     0.537000      0.332000      0.873000     Biso  1.000000 C
   C_769      1.0     0.464000      0.668000      0.873000     Biso  1.000000 C
   C_770      1.0     0.332000      0.464000      0.872000     Biso  1.000000 C
   C_771      1.0     0.668000      0.536000      0.873000     Biso  1.000000 C
   C_772      1.0     0.537000      0.668000      0.873000     Biso  1.000000 C
   C_773      1.0     0.464000      0.332000      0.873000     Biso  1.000000 C
   C_774      1.0     0.332000      0.537000      0.872000     Biso  1.000000 C
   C_775      1.0     0.668000      0.463000      0.873000     Biso  1.000000 C
   C_776      1.0     0.464000      0.667000      0.127000     Biso  1.000000 C
   C_777      1.0     0.537000      0.332000      0.127000     Biso  1.000000 C
   C_778      1.0     0.668000      0.536000      0.127000     Biso  1.000000 C
   C_779      1.0     0.332000      0.464000      0.125000     Biso  1.000000 C
   C_780      1.0     0.500000      0.654000      0.152000     Biso  1.000000 C
   C_781      1.0     0.655000      0.500000      0.152000     Biso  1.000000 C
   C_782      1.0     0.345000      0.500000      0.150000     Biso  1.000000 C
   C_783      1.0     0.500000      0.345000      0.848000     Biso  1.000000 C
   C_784      1.0     0.500000      0.655000      0.848000     Biso  1.000000 C
   C_785      1.0     0.345000      0.500000      0.848000     Biso  1.000000 C
   C_786      1.0     0.655000      0.500000      0.848000     Biso  1.000000 C
   H_787      1.0     0.500000      0.635000      0.190000     Biso  1.000000 H
   H_788      1.0     0.636000      0.500000      0.190000     Biso  1.000000 H
   H_789      1.0     0.365000      0.500000      0.188000     Biso  1.000000 H
   H_790      1.0     0.500000      0.364000      0.810000     Biso  1.000000 H
   H_791      1.0     0.500000      0.636000      0.810000     Biso  1.000000 H
   H_792      1.0     0.364000      0.500000      0.810000     Biso  1.000000 H
   H_793      1.0     0.636000      0.500000      0.810000     Biso  1.000000 H
   C_794      1.0     0.536000      0.692000      0.079000     Biso  1.000000 C
   C_795      1.0     0.693000      0.464000      0.079000     Biso  1.000000 C
   C_796      1.0     0.306000      0.537000      0.078000     Biso  1.000000 C
   C_797      1.0     0.536000      0.306000      0.921000     Biso  1.000000 C
   C_798      1.0     0.464000      0.693000      0.922000     Biso  1.000000 C
   C_799      1.0     0.306000      0.464000      0.921000     Biso  1.000000 C
   C_800      1.0     0.693000      0.536000      0.921000     Biso  1.000000 C
   C_801      1.0     0.536000      0.693000      0.922000     Biso  1.000000 C
   C_802      1.0     0.464000      0.306000      0.921000     Biso  1.000000 C
   C_803      1.0     0.306000      0.536000      0.921000     Biso  1.000000 C
   C_804      1.0     0.693000      0.464000      0.921000     Biso  1.000000 C
   C_805      1.0     0.464000      0.692000      0.079000     Biso  1.000000 C
   C_806      1.0     0.537000      0.306000      0.078000     Biso  1.000000 C
   C_807      1.0     0.693000      0.536000      0.079000     Biso  1.000000 C
   C_808      1.0     0.306000      0.464000      0.077000     Biso  1.000000 C
   H_809      1.0     0.565000      0.702000      0.061000     Biso  1.000000 H
   H_810      1.0     0.703000      0.435000      0.061000     Biso  1.000000 H
   H_811      1.0     0.296000      0.566000      0.061000     Biso  1.000000 H
   H_812      1.0     0.565000      0.297000      0.939000     Biso  1.000000 H
   H_813      1.0     0.435000      0.703000      0.940000     Biso  1.000000 H
   H_814      1.0     0.296000      0.435000      0.939000     Biso  1.000000 H
   H_815      1.0     0.703000      0.565000      0.939000     Biso  1.000000 H
   H_816      1.0     0.565000      0.703000      0.940000     Biso  1.000000 H
   H_817      1.0     0.435000      0.296000      0.939000     Biso  1.000000 H
   H_818      1.0     0.297000      0.565000      0.938000     Biso  1.000000 H
   H_819      1.0     0.703000      0.435000      0.939000     Biso  1.000000 H
   H_820      1.0     0.435000      0.702000      0.061000     Biso  1.000000 H
   H_821      1.0     0.566000      0.297000      0.061000     Biso  1.000000 H
   H_822      1.0     0.703000      0.565000      0.061000     Biso  1.000000 H
   H_823      1.0     0.297000      0.435000      0.059000     Biso  1.000000 H
   C_824      1.0     0.500000      0.705000      0.055000     Biso  1.000000 C
   C_825      1.0     0.706000      0.500000      0.054000     Biso  1.000000 C
   C_826      1.0     0.293000      0.501000      0.053000     Biso  1.000000 C
   C_827      1.0     0.500000      0.293000      0.945000     Biso  1.000000 C
   C_828      1.0     0.500000      0.706000      0.946000     Biso  1.000000 C
   C_829      1.0     0.293000      0.500000      0.945000     Biso  1.000000 C
   C_830      1.0     0.706000      0.500000      0.946000     Biso  1.000000 C
   C_831      1.0     0.500000      0.732000      0.001000     Biso  1.000000 C
   C_832      1.0     0.732000      0.500000     -0.000000     Biso  1.000000 C
   C_833      1.0     0.267000      0.501000     -0.001000     Biso  1.000000 C
   H_834      1.0     0.527000      0.751000      0.001000     Biso  1.000000 H
   H_835      1.0     0.752000      0.473000     -0.000000     Biso  1.000000 H
   H_836      1.0     0.248000      0.527000     -0.001000     Biso  1.000000 H
   H_837      1.0     0.527000      0.248000     -0.001000     Biso  1.000000 H
   H_838      1.0     0.474000      0.751000      0.001000     Biso  1.000000 H
   H_839      1.0     0.247000      0.474000     -0.001000     Biso  1.000000 H
   H_840      1.0     0.752000      0.527000      0.000000     Biso  1.000000 H
