data_crystal
 
_cell_length_a    33.176
_cell_length_b    33.182
_cell_length_c    23.063
_cell_angle_alpha 90.000
_cell_angle_beta  90.000
_cell_angle_gamma 90.000
 
_symmetry_space_group_name_Hall 'P 1'
_symmetry_space_group_name_H-M  'P 1'
 
loop_
_symmetry_equiv_pos_as_xyz
 'x,y,z' 
 
loop_
_atom_site_label
_atom_site_type_symbol
_atom_site_fract_x
_atom_site_fract_y
_atom_site_fract_z
_atom_site_charge
Cu         Cu        0.228     0.228     0.500   0.00000
Cu         Cu        0.175     0.175     0.500   0.00000
Cu         Cu        0.339     0.339     0.168   0.00000
Cu         Cu        0.377     0.378     0.243   0.00000
Cu         Cu        0.499     0.258     0.499   0.00000
Cu         Cu        0.499     0.183     0.499   0.00000
O          O         0.202     0.042     0.289   0.00000
O          O         0.252     0.042     0.220   0.00000
O          O         0.256     0.196     0.437   0.00000
O          O         0.206     0.148     0.439   0.00000
O          O         0.350     0.290     0.215   0.00000
O          O         0.384     0.326     0.284   0.00000
O          O         0.456     0.187     0.439   0.00000
O          O         0.458     0.256     0.436   0.00000
C          C         0.256     0.089     0.297   0.00000
C          C         0.238     0.108     0.344   0.00000
H          H         0.209     0.099     0.359   0.00000
C          C         0.259     0.141     0.370   0.00000
C          C         0.297     0.153     0.350   0.00000
H          H         0.312     0.178     0.371   0.00000
C          C         0.315     0.132     0.304   0.00000
C          C         0.295     0.101     0.278   0.00000
H          H         0.308     0.085     0.241   0.00000
C          C         0.380     0.255     0.294   0.00000
C          C         0.406     0.257     0.342   0.00000
H          H         0.418     0.285     0.356   0.00000
C          C         0.416     0.221     0.370   0.00000
C          C         0.400     0.184     0.350   0.00000
H          H         0.409     0.156     0.373   0.00000
C          C         0.374     0.183     0.303   0.00000
C          C         0.364     0.219     0.275   0.00000
H          H         0.344     0.218     0.237   0.00000
C          C         0.357     0.143     0.282   0.00000
H          H         0.378     0.118     0.295   0.00000
H          H         0.356     0.143     0.234   0.00000
C          C         0.235     0.055     0.266   0.00000
C          C         0.239     0.163     0.419   0.00000
C          C         0.370     0.293     0.261   0.00000
C          C         0.446     0.221     0.419   0.00000
O          O         0.146     0.958     0.200   0.00000
O          O         0.196     0.956     0.131   0.00000
C          C         0.163     0.944     0.155   0.00000
C          C         0.144     0.908     0.127   0.00000
C          C         0.109     0.891     0.151   0.00000
H          H         0.095     0.905     0.189   0.00000
C          C         0.162     0.889     0.079   0.00000
H          H         0.189     0.902     0.061   0.00000
C          C         0.145     0.854     0.054   0.00000
C          C         0.163     0.836     0.000   0.00000
H          H         0.158     0.803     0.001   0.00000
O          O         0.392     0.330     0.128   0.00000
O          O         0.426     0.366     0.198   0.00000
C          C         0.424     0.344     0.152   0.00000
C          C         0.464     0.332     0.126   0.00000
C          C         0.500     0.345     0.151   0.00000
H          H         0.500     0.365     0.188   0.00000
C          C         0.464     0.307     0.077   0.00000
H          H         0.435     0.297     0.059   0.00000
C          C         0.501     0.293     0.053   0.00000
C          C         0.501     0.267    -0.001   0.00000
H          H         0.474     0.247    -0.000   0.00000
Cu         Cu        0.828     0.001     0.753   0.00000
Cu         Cu        0.171    -0.000     0.753   0.00000
Cu         Cu       -0.000     0.828     0.753   0.00000
Cu         Cu        0.000     0.172     0.752   0.00000
Cu         Cu        0.172    -0.000     0.247   0.00000
Cu         Cu        0.828     0.001     0.248   0.00000
Cu         Cu       -0.000     0.828     0.247   0.00000
Cu         Cu        0.001     0.172     0.247   0.00000
Cu         Cu        0.774     0.001     0.827   0.00000
Cu         Cu        0.225    -0.000     0.828   0.00000
Cu         Cu       -0.000     0.774     0.828   0.00000
Cu         Cu        0.000     0.226     0.827   0.00000
Cu         Cu        0.225    -0.000     0.172   0.00000
Cu         Cu        0.775     0.001     0.172   0.00000
Cu         Cu       -0.000     0.775     0.172   0.00000
Cu         Cu        0.001     0.226     0.173   0.00000
Cu         Cu        0.772     0.773     0.500   0.00000
Cu         Cu        0.772     0.228     0.500   0.00000
Cu         Cu        0.227     0.773     0.500   0.00000
Cu         Cu        0.825     0.826     0.500   0.00000
Cu         Cu        0.825     0.175     0.500   0.00000
Cu         Cu        0.174     0.825     0.500   0.00000
Cu         Cu        0.661     0.660     0.170   0.00000
Cu         Cu        0.661     0.339     0.170   0.00000
Cu         Cu        0.339     0.661     0.170   0.00000
Cu         Cu        0.661     0.339     0.829   0.00000
Cu         Cu        0.339     0.661     0.830   0.00000
Cu         Cu        0.339     0.339     0.830   0.00000
Cu         Cu        0.661     0.661     0.829   0.00000
Cu         Cu        0.623     0.622     0.245   0.00000
Cu         Cu        0.623     0.377     0.245   0.00000
Cu         Cu        0.377     0.622     0.245   0.00000
Cu         Cu        0.623     0.377     0.755   0.00000
Cu         Cu        0.378     0.623     0.755   0.00000
Cu         Cu        0.378     0.377     0.755   0.00000
Cu         Cu        0.623     0.623     0.755   0.00000
Cu         Cu        0.500     0.742     0.500   0.00000
Cu         Cu        0.742     0.500     0.500   0.00000
Cu         Cu        0.259     0.500     0.500   0.00000
Cu         Cu        0.500     0.817     0.500   0.00000
Cu         Cu        0.817     0.500     0.500   0.00000
Cu         Cu        0.184     0.500     0.500   0.00000
O          O         0.798     0.958     0.289   0.00000
O          O         0.958     0.202     0.289   0.00000
O          O         0.042     0.798     0.289   0.00000
O          O         0.798     0.044     0.711   0.00000
O          O         0.202     0.958     0.711   0.00000
O          O         0.044     0.202     0.711   0.00000
O          O         0.958     0.798     0.711   0.00000
O          O         0.798     0.958     0.711   0.00000
O          O         0.202     0.042     0.711   0.00000
O          O         0.042     0.798     0.711   0.00000
O          O         0.958     0.202     0.711   0.00000
O          O         0.202     0.958     0.289   0.00000
O          O         0.798     0.044     0.289   0.00000
O          O         0.958     0.798     0.289   0.00000
O          O         0.044     0.202     0.289   0.00000
O          O         0.748     0.958     0.220   0.00000
O          O         0.958     0.252     0.220   0.00000
O          O         0.042     0.748     0.220   0.00000
O          O         0.748     0.042     0.779   0.00000
O          O         0.252     0.958     0.780   0.00000
O          O         0.042     0.252     0.778   0.00000
O          O         0.958     0.748     0.779   0.00000
O          O         0.748     0.958     0.780   0.00000
O          O         0.252     0.042     0.780   0.00000
O          O         0.042     0.748     0.780   0.00000
O          O         0.958     0.252     0.780   0.00000
O          O         0.252     0.958     0.220   0.00000
O          O         0.748     0.042     0.221   0.00000
O          O         0.958     0.748     0.221   0.00000
O          O         0.042     0.252     0.222   0.00000
O          O         0.746     0.804     0.436   0.00000
O          O         0.805     0.256     0.438   0.00000
O          O         0.194     0.744     0.439   0.00000
O          O         0.744     0.196     0.561   0.00000
O          O         0.256     0.806     0.560   0.00000
O          O         0.196     0.256     0.561   0.00000
O          O         0.804     0.746     0.563   0.00000
O          O         0.744     0.806     0.561   0.00000
O          O         0.256     0.194     0.561   0.00000
O          O         0.196     0.746     0.564   0.00000
O          O         0.805     0.256     0.561   0.00000
O          O         0.254     0.804     0.436   0.00000
O          O         0.744     0.196     0.438   0.00000
O          O         0.806     0.744     0.441   0.00000
O          O         0.196     0.256     0.439   0.00000
O          O         0.794     0.854     0.439   0.00000
O          O         0.853     0.206     0.439   0.00000
O          O         0.146     0.794     0.439   0.00000
O          O         0.794     0.148     0.561   0.00000
O          O         0.205     0.852     0.561   0.00000
O          O         0.148     0.206     0.561   0.00000
O          O         0.852     0.795     0.561   0.00000
O          O         0.794     0.854     0.561   0.00000
O          O         0.206     0.146     0.561   0.00000
O          O         0.146     0.794     0.561   0.00000
O          O         0.853     0.206     0.561   0.00000
O          O         0.206     0.854     0.440   0.00000
O          O         0.794     0.148     0.439   0.00000
O          O         0.852     0.796     0.439   0.00000
O          O         0.148     0.206     0.439   0.00000
O          O         0.650     0.710     0.217   0.00000
O          O         0.710     0.350     0.217   0.00000
O          O         0.290     0.650     0.218   0.00000
O          O         0.650     0.290     0.781   0.00000
O          O         0.350     0.710     0.781   0.00000
O          O         0.290     0.350     0.783   0.00000
O          O         0.710     0.650     0.781   0.00000
O          O         0.650     0.710     0.781   0.00000
O          O         0.350     0.290     0.781   0.00000
O          O         0.290     0.650     0.783   0.00000
O          O         0.710     0.350     0.783   0.00000
O          O         0.350     0.710     0.217   0.00000
O          O         0.650     0.290     0.217   0.00000
O          O         0.710     0.650     0.219   0.00000
O          O         0.290     0.350     0.217   0.00000
O          O         0.616     0.674     0.286   0.00000
O          O         0.674     0.384     0.286   0.00000
O          O         0.326     0.615     0.286   0.00000
O          O         0.614     0.326     0.714   0.00000
O          O         0.386     0.674     0.714   0.00000
O          O         0.326     0.384     0.714   0.00000
O          O         0.674     0.614     0.714   0.00000
O          O         0.614     0.674     0.714   0.00000
O          O         0.386     0.326     0.714   0.00000
O          O         0.326     0.616     0.714   0.00000
O          O         0.674     0.384     0.714   0.00000
O          O         0.384     0.674     0.286   0.00000
O          O         0.616     0.326     0.286   0.00000
O          O         0.674     0.614     0.286   0.00000
O          O         0.326     0.386     0.284   0.00000
O          O         0.542     0.814     0.439   0.00000
O          O         0.814     0.458     0.439   0.00000
O          O         0.186     0.542     0.439   0.00000
O          O         0.542     0.186     0.558   0.00000
O          O         0.458     0.814     0.561   0.00000
O          O         0.186     0.458     0.561   0.00000
O          O         0.814     0.542     0.561   0.00000
O          O         0.542     0.814     0.561   0.00000
O          O         0.458     0.186     0.561   0.00000
O          O         0.186     0.542     0.561   0.00000
O          O         0.814     0.458     0.561   0.00000
O          O         0.458     0.814     0.439   0.00000
O          O         0.540     0.186     0.436   0.00000
O          O         0.814     0.542     0.439   0.00000
O          O         0.187     0.458     0.439   0.00000
O          O         0.542     0.745     0.439   0.00000
O          O         0.745     0.458     0.439   0.00000
O          O         0.255     0.542     0.439   0.00000
O          O         0.540     0.255     0.561   0.00000
O          O         0.458     0.745     0.561   0.00000
O          O         0.256     0.458     0.561   0.00000
O          O         0.745     0.542     0.561   0.00000
O          O         0.542     0.746     0.561   0.00000
O          O         0.456     0.255     0.558   0.00000
O          O         0.256     0.542     0.561   0.00000
O          O         0.745     0.458     0.561   0.00000
O          O         0.458     0.745     0.439   0.00000
O          O         0.542     0.255     0.439   0.00000
O          O         0.745     0.542     0.439   0.00000
O          O         0.256     0.458     0.439   0.00000
C          C         0.743     0.912     0.297   0.00000
C          C         0.912     0.257     0.298   0.00000
C          C         0.088     0.743     0.298   0.00000
C          C         0.743     0.089     0.702   0.00000
C          C         0.256     0.912     0.702   0.00000
C          C         0.089     0.257     0.701   0.00000
C          C         0.912     0.744     0.702   0.00000
C          C         0.743     0.912     0.703   0.00000
C          C         0.257     0.088     0.702   0.00000
C          C         0.088     0.743     0.703   0.00000
C          C         0.912     0.257     0.702   0.00000
C          C         0.256     0.912     0.298   0.00000
C          C         0.743     0.089     0.298   0.00000
C          C         0.912     0.744     0.299   0.00000
C          C         0.089     0.257     0.298   0.00000
C          C         0.762     0.892     0.344   0.00000
C          C         0.892     0.238     0.345   0.00000
C          C         0.108     0.761     0.345   0.00000
C          C         0.761     0.109     0.655   0.00000
C          C         0.238     0.892     0.655   0.00000
C          C         0.109     0.238     0.655   0.00000
C          C         0.892     0.762     0.656   0.00000
C          C         0.761     0.893     0.655   0.00000
C          C         0.239     0.108     0.655   0.00000
C          C         0.108     0.762     0.656   0.00000
C          C         0.892     0.238     0.655   0.00000
C          C         0.238     0.892     0.344   0.00000
C          C         0.761     0.109     0.345   0.00000
C          C         0.892     0.762     0.346   0.00000
C          C         0.109     0.239     0.345   0.00000
H          H         0.791     0.901     0.359   0.00000
H          H         0.901     0.209     0.360   0.00000
H          H         0.098     0.791     0.360   0.00000
H          H         0.791     0.100     0.640   0.00000
H          H         0.209     0.901     0.640   0.00000
H          H         0.100     0.209     0.640   0.00000
H          H         0.901     0.792     0.641   0.00000
H          H         0.791     0.902     0.640   0.00000
H          H         0.209     0.098     0.640   0.00000
H          H         0.099     0.791     0.641   0.00000
H          H         0.901     0.209     0.640   0.00000
H          H         0.209     0.901     0.359   0.00000
H          H         0.791     0.100     0.360   0.00000
H          H         0.901     0.792     0.361   0.00000
H          H         0.100     0.209     0.360   0.00000
C          C         0.742     0.859     0.370   0.00000
C          C         0.860     0.259     0.371   0.00000
C          C         0.140     0.741     0.372   0.00000
C          C         0.741     0.141     0.628   0.00000
C          C         0.258     0.860     0.628   0.00000
C          C         0.141     0.259     0.628   0.00000
C          C         0.859     0.743     0.629   0.00000
C          C         0.741     0.860     0.628   0.00000
C          C         0.259     0.140     0.628   0.00000
C          C         0.141     0.742     0.629   0.00000
C          C         0.859     0.259     0.629   0.00000
C          C         0.258     0.859     0.371   0.00000
C          C         0.741     0.141     0.372   0.00000
C          C         0.860     0.742     0.372   0.00000
C          C         0.141     0.259     0.372   0.00000
C          C         0.704     0.847     0.351   0.00000
C          C         0.848     0.297     0.352   0.00000
C          C         0.152     0.703     0.352   0.00000
C          C         0.703     0.153     0.647   0.00000
C          C         0.297     0.848     0.647   0.00000
C          C         0.153     0.297     0.648   0.00000
C          C         0.847     0.704     0.648   0.00000
C          C         0.703     0.848     0.648   0.00000
C          C         0.297     0.152     0.648   0.00000
C          C         0.153     0.704     0.649   0.00000
C          C         0.848     0.297     0.648   0.00000
C          C         0.296     0.847     0.352   0.00000
C          C         0.703     0.153     0.352   0.00000
C          C         0.848     0.704     0.353   0.00000
C          C         0.153     0.297     0.352   0.00000
H          H         0.689     0.822     0.372   0.00000
H          H         0.822     0.312     0.373   0.00000
H          H         0.177     0.688     0.374   0.00000
H          H         0.688     0.178     0.626   0.00000
H          H         0.311     0.823     0.626   0.00000
H          H         0.178     0.312     0.627   0.00000
H          H         0.822     0.690     0.627   0.00000
H          H         0.688     0.823     0.627   0.00000
H          H         0.312     0.177     0.626   0.00000
H          H         0.178     0.689     0.627   0.00000
H          H         0.822     0.312     0.627   0.00000
H          H         0.311     0.822     0.373   0.00000
H          H         0.688     0.178     0.373   0.00000
H          H         0.823     0.689     0.374   0.00000
H          H         0.178     0.312     0.373   0.00000
C          C         0.685     0.868     0.305   0.00000
C          C         0.868     0.316     0.306   0.00000
C          C         0.132     0.684     0.306   0.00000
C          C         0.684     0.133     0.693   0.00000
C          C         0.315     0.868     0.694   0.00000
C          C         0.132     0.316     0.694   0.00000
C          C         0.868     0.685     0.694   0.00000
C          C         0.684     0.868     0.695   0.00000
C          C         0.315     0.132     0.694   0.00000
C          C         0.132     0.685     0.694   0.00000
C          C         0.868     0.316     0.694   0.00000
C          C         0.315     0.868     0.306   0.00000
C          C         0.684     0.132     0.306   0.00000
C          C         0.868     0.685     0.307   0.00000
C          C         0.133     0.316     0.306   0.00000
C          C         0.705     0.899     0.278   0.00000
C          C         0.900     0.295     0.279   0.00000
C          C         0.100     0.705     0.279   0.00000
C          C         0.705     0.101     0.721   0.00000
C          C         0.295     0.899     0.721   0.00000
C          C         0.101     0.295     0.720   0.00000
C          C         0.899     0.706     0.721   0.00000
C          C         0.705     0.900     0.722   0.00000
C          C         0.295     0.100     0.722   0.00000
C          C         0.100     0.705     0.722   0.00000
C          C         0.899     0.295     0.721   0.00000
C          C         0.295     0.899     0.279   0.00000
C          C         0.705     0.101     0.279   0.00000
C          C         0.899     0.706     0.280   0.00000
C          C         0.101     0.295     0.279   0.00000
H          H         0.692     0.915     0.242   0.00000
H          H         0.915     0.308     0.242   0.00000
H          H         0.085     0.692     0.242   0.00000
H          H         0.691     0.085     0.757   0.00000
H          H         0.308     0.915     0.758   0.00000
H          H         0.085     0.308     0.757   0.00000
H          H         0.915     0.692     0.757   0.00000
H          H         0.692     0.915     0.759   0.00000
H          H         0.308     0.085     0.759   0.00000
H          H         0.085     0.692     0.758   0.00000
H          H         0.915     0.308     0.758   0.00000
H          H         0.308     0.915     0.242   0.00000
H          H         0.692     0.085     0.242   0.00000
H          H         0.915     0.692     0.243   0.00000
H          H         0.085     0.308     0.243   0.00000
C          C         0.620     0.745     0.296   0.00000
C          C         0.745     0.380     0.296   0.00000
C          C         0.255     0.620     0.296   0.00000
C          C         0.619     0.255     0.703   0.00000
C          C         0.380     0.745     0.703   0.00000
C          C         0.255     0.380     0.704   0.00000
C          C         0.745     0.620     0.703   0.00000
C          C         0.620     0.745     0.703   0.00000
C          C         0.380     0.255     0.703   0.00000
C          C         0.255     0.620     0.704   0.00000
C          C         0.745     0.380     0.704   0.00000
C          C         0.380     0.745     0.296   0.00000
C          C         0.620     0.255     0.296   0.00000
C          C         0.745     0.620     0.297   0.00000
C          C         0.256     0.381     0.295   0.00000
C          C         0.594     0.744     0.344   0.00000
C          C         0.744     0.406     0.344   0.00000
C          C         0.256     0.594     0.344   0.00000
C          C         0.593     0.256     0.655   0.00000
C          C         0.407     0.744     0.656   0.00000
C          C         0.257     0.406     0.656   0.00000
C          C         0.744     0.594     0.656   0.00000
C          C         0.593     0.744     0.656   0.00000
C          C         0.406     0.256     0.655   0.00000
C          C         0.256     0.594     0.656   0.00000
C          C         0.744     0.406     0.656   0.00000
C          C         0.406     0.744     0.344   0.00000
C          C         0.593     0.256     0.343   0.00000
C          C         0.744     0.594     0.344   0.00000
C          C         0.257     0.407     0.343   0.00000
H          H         0.581     0.715     0.358   0.00000
H          H         0.715     0.419     0.358   0.00000
H          H         0.285     0.581     0.359   0.00000
H          H         0.580     0.285     0.640   0.00000
H          H         0.419     0.716     0.641   0.00000
H          H         0.285     0.419     0.642   0.00000
H          H         0.716     0.581     0.641   0.00000
H          H         0.581     0.716     0.641   0.00000
H          H         0.419     0.284     0.640   0.00000
H          H         0.285     0.581     0.642   0.00000
H          H         0.715     0.419     0.642   0.00000
H          H         0.419     0.715     0.358   0.00000
H          H         0.581     0.285     0.358   0.00000
H          H         0.716     0.581     0.359   0.00000
H          H         0.285     0.419     0.357   0.00000
C          C         0.583     0.780     0.372   0.00000
C          C         0.780     0.417     0.372   0.00000
C          C         0.220     0.583     0.372   0.00000
C          C         0.582     0.220     0.627   0.00000
C          C         0.417     0.780     0.628   0.00000
C          C         0.221     0.417     0.628   0.00000
C          C         0.780     0.583     0.628   0.00000
C          C         0.583     0.780     0.628   0.00000
C          C         0.416     0.220     0.627   0.00000
C          C         0.221     0.583     0.628   0.00000
C          C         0.780     0.417     0.628   0.00000
C          C         0.417     0.779     0.372   0.00000
C          C         0.583     0.220     0.371   0.00000
C          C         0.780     0.583     0.372   0.00000
C          C         0.221     0.417     0.371   0.00000
C          C         0.599     0.816     0.352   0.00000
C          C         0.816     0.401     0.352   0.00000
C          C         0.184     0.599     0.352   0.00000
C          C         0.598     0.184     0.647   0.00000
C          C         0.401     0.817     0.647   0.00000
C          C         0.184     0.401     0.648   0.00000
C          C         0.817     0.600     0.647   0.00000
C          C         0.599     0.817     0.648   0.00000
C          C         0.400     0.183     0.647   0.00000
C          C         0.184     0.599     0.648   0.00000
C          C         0.816     0.401     0.648   0.00000
C          C         0.401     0.816     0.352   0.00000
C          C         0.599     0.184     0.351   0.00000
C          C         0.817     0.600     0.353   0.00000
C          C         0.184     0.401     0.352   0.00000
H          H         0.590     0.844     0.374   0.00000
H          H         0.844     0.410     0.374   0.00000
H          H         0.156     0.590     0.374   0.00000
H          H         0.589     0.156     0.625   0.00000
H          H         0.409     0.844     0.626   0.00000
H          H         0.156     0.410     0.626   0.00000
H          H         0.844     0.591     0.625   0.00000
H          H         0.590     0.845     0.626   0.00000
H          H         0.409     0.156     0.625   0.00000
H          H         0.156     0.590     0.626   0.00000
H          H         0.844     0.410     0.626   0.00000
H          H         0.409     0.844     0.374   0.00000
H          H         0.590     0.156     0.373   0.00000
H          H         0.844     0.591     0.375   0.00000
H          H         0.157     0.410     0.375   0.00000
C          C         0.626     0.818     0.305   0.00000
C          C         0.818     0.374     0.305   0.00000
C          C         0.182     0.626     0.305   0.00000
C          C         0.625     0.182     0.694   0.00000
C          C         0.374     0.818     0.695   0.00000
C          C         0.182     0.375     0.695   0.00000
C          C         0.818     0.626     0.694   0.00000
C          C         0.626     0.818     0.695   0.00000
C          C         0.374     0.182     0.695   0.00000
C          C         0.182     0.626     0.695   0.00000
C          C         0.818     0.374     0.695   0.00000
C          C         0.374     0.818     0.305   0.00000
C          C         0.625     0.182     0.304   0.00000
C          C         0.818     0.626     0.306   0.00000
C          C         0.183     0.375     0.305   0.00000
C          C         0.636     0.782     0.277   0.00000
C          C         0.782     0.364     0.277   0.00000
C          C         0.218     0.636     0.277   0.00000
C          C         0.635     0.218     0.722   0.00000
C          C         0.364     0.782     0.722   0.00000
C          C         0.218     0.364     0.723   0.00000
C          C         0.781     0.636     0.722   0.00000
C          C         0.636     0.782     0.723   0.00000
C          C         0.364     0.218     0.722   0.00000
C          C         0.218     0.636     0.723   0.00000
C          C         0.782     0.364     0.723   0.00000
C          C         0.364     0.782     0.277   0.00000
C          C         0.636     0.218     0.277   0.00000
C          C         0.781     0.636     0.278   0.00000
C          C         0.219     0.365     0.276   0.00000
H          H         0.656     0.782     0.240   0.00000
H          H         0.782     0.344     0.240   0.00000
H          H         0.218     0.656     0.240   0.00000
H          H         0.655     0.218     0.759   0.00000
H          H         0.344     0.781     0.760   0.00000
H          H         0.218     0.344     0.760   0.00000
H          H         0.781     0.656     0.759   0.00000
H          H         0.656     0.781     0.760   0.00000
H          H         0.344     0.219     0.760   0.00000
H          H         0.218     0.656     0.760   0.00000
H          H         0.782     0.344     0.760   0.00000
H          H         0.344     0.782     0.240   0.00000
H          H         0.656     0.218     0.240   0.00000
H          H         0.781     0.656     0.241   0.00000
H          H         0.218     0.345     0.239   0.00000
C          C         0.643     0.857     0.284   0.00000
C          C         0.857     0.358     0.284   0.00000
C          C         0.143     0.642     0.284   0.00000
C          C         0.642     0.143     0.715   0.00000
C          C         0.357     0.857     0.716   0.00000
C          C         0.143     0.358     0.716   0.00000
C          C         0.857     0.643     0.716   0.00000
C          C         0.643     0.857     0.717   0.00000
C          C         0.357     0.143     0.716   0.00000
C          C         0.143     0.643     0.716   0.00000
C          C         0.857     0.358     0.716   0.00000
C          C         0.357     0.857     0.284   0.00000
C          C         0.642     0.143     0.284   0.00000
C          C         0.857     0.643     0.285   0.00000
C          C         0.143     0.358     0.284   0.00000
H          H         0.622     0.882     0.297   0.00000
H          H         0.882     0.378     0.297   0.00000
H          H         0.118     0.622     0.297   0.00000
H          H         0.621     0.118     0.702   0.00000
H          H         0.378     0.882     0.703   0.00000
H          H         0.118     0.378     0.703   0.00000
H          H         0.882     0.623     0.703   0.00000
H          H         0.622     0.882     0.704   0.00000
H          H         0.378     0.118     0.704   0.00000
H          H         0.118     0.622     0.702   0.00000
H          H         0.882     0.378     0.703   0.00000
H          H         0.378     0.882     0.297   0.00000
H          H         0.622     0.118     0.296   0.00000
H          H         0.882     0.623     0.297   0.00000
H          H         0.119     0.378     0.297   0.00000
H          H         0.643     0.857     0.236   0.00000
H          H         0.858     0.357     0.236   0.00000
H          H         0.142     0.643     0.237   0.00000
H          H         0.642     0.142     0.762   0.00000
H          H         0.356     0.857     0.763   0.00000
H          H         0.142     0.357     0.763   0.00000
H          H         0.857     0.644     0.763   0.00000
H          H         0.643     0.857     0.764   0.00000
H          H         0.357     0.143     0.764   0.00000
H          H         0.142     0.643     0.763   0.00000
H          H         0.858     0.357     0.764   0.00000
H          H         0.357     0.858     0.237   0.00000
H          H         0.643     0.142     0.236   0.00000
H          H         0.857     0.644     0.237   0.00000
H          H         0.143     0.357     0.237   0.00000
C          C         0.765     0.945     0.266   0.00000
C          C         0.945     0.235     0.267   0.00000
C          C         0.055     0.765     0.266   0.00000
C          C         0.765     0.056     0.733   0.00000
C          C         0.235     0.945     0.733   0.00000
C          C         0.055     0.235     0.732   0.00000
C          C         0.945     0.765     0.733   0.00000
C          C         0.765     0.945     0.734   0.00000
C          C         0.235     0.055     0.734   0.00000
C          C         0.055     0.765     0.734   0.00000
C          C         0.945     0.235     0.733   0.00000
C          C         0.235     0.945     0.267   0.00000
C          C         0.765     0.056     0.267   0.00000
C          C         0.945     0.765     0.267   0.00000
C          C         0.056     0.235     0.268   0.00000
C          C         0.762     0.837     0.419   0.00000
C          C         0.837     0.239     0.420   0.00000
C          C         0.162     0.761     0.421   0.00000
C          C         0.761     0.164     0.579   0.00000
C          C         0.238     0.838     0.579   0.00000
C          C         0.164     0.239     0.579   0.00000
C          C         0.837     0.763     0.581   0.00000
C          C         0.761     0.838     0.579   0.00000
C          C         0.239     0.162     0.579   0.00000
C          C         0.163     0.762     0.580   0.00000
C          C         0.837     0.239     0.580   0.00000
C          C         0.238     0.837     0.420   0.00000
C          C         0.761     0.163     0.420   0.00000
C          C         0.838     0.762     0.421   0.00000
C          C         0.164     0.239     0.421   0.00000
C          C         0.630     0.707     0.264   0.00000
C          C         0.707     0.370     0.264   0.00000
C          C         0.293     0.629     0.264   0.00000
C          C         0.629     0.293     0.735   0.00000
C          C         0.371     0.707     0.735   0.00000
C          C         0.293     0.370     0.736   0.00000
C          C         0.707     0.629     0.735   0.00000
C          C         0.629     0.707     0.735   0.00000
C          C         0.371     0.293     0.735   0.00000
C          C         0.293     0.630     0.736   0.00000
C          C         0.707     0.370     0.736   0.00000
C          C         0.370     0.707     0.264   0.00000
C          C         0.629     0.293     0.264   0.00000
C          C         0.707     0.629     0.265   0.00000
C          C         0.294     0.371     0.263   0.00000
C          C         0.554     0.779     0.421   0.00000
C          C         0.779     0.446     0.421   0.00000
C          C         0.221     0.554     0.421   0.00000
C          C         0.552     0.221     0.578   0.00000
C          C         0.447     0.780     0.579   0.00000
C          C         0.221     0.447     0.579   0.00000
C          C         0.780     0.553     0.579   0.00000
C          C         0.553     0.780     0.579   0.00000
C          C         0.446     0.220     0.578   0.00000
C          C         0.221     0.554     0.579   0.00000
C          C         0.779     0.446     0.579   0.00000
C          C         0.446     0.779     0.421   0.00000
C          C         0.553     0.221     0.419   0.00000
C          C         0.780     0.553     0.421   0.00000
C          C         0.221     0.447     0.421   0.00000
O          O         0.854     0.042     0.200   0.00000
O          O         0.042     0.146     0.200   0.00000
O          O         0.958     0.854     0.200   0.00000
O          O         0.854     0.958     0.799   0.00000
O          O         0.146     0.042     0.799   0.00000
O          O         0.958     0.146     0.800   0.00000
O          O         0.042     0.854     0.800   0.00000
O          O         0.854     0.043     0.800   0.00000
O          O         0.146     0.956     0.800   0.00000
O          O         0.958     0.854     0.800   0.00000
O          O         0.042     0.146     0.800   0.00000
O          O         0.146     0.042     0.201   0.00000
O          O         0.854     0.958     0.201   0.00000
O          O         0.042     0.854     0.201   0.00000
O          O         0.958     0.146     0.200   0.00000
O          O         0.804     0.044     0.131   0.00000
O          O         0.044     0.196     0.132   0.00000
O          O         0.956     0.804     0.131   0.00000
O          O         0.805     0.958     0.869   0.00000
O          O         0.194     0.042     0.869   0.00000
O          O         0.958     0.195     0.869   0.00000
O          O         0.042     0.805     0.869   0.00000
O          O         0.804     0.044     0.868   0.00000
O          O         0.196     0.956     0.869   0.00000
O          O         0.956     0.804     0.869   0.00000
O          O         0.044     0.196     0.867   0.00000
O          O         0.195     0.042     0.131   0.00000
O          O         0.805     0.958     0.131   0.00000
O          O         0.042     0.805     0.131   0.00000
O          O         0.958     0.195     0.131   0.00000
C          C         0.837     0.057     0.155   0.00000
C          C         0.057     0.163     0.155   0.00000
C          C         0.944     0.837     0.155   0.00000
C          C         0.837     0.945     0.845   0.00000
C          C         0.162     0.055     0.845   0.00000
C          C         0.945     0.163     0.845   0.00000
C          C         0.056     0.837     0.846   0.00000
C          C         0.837     0.057     0.845   0.00000
C          C         0.163     0.943     0.845   0.00000
C          C         0.943     0.837     0.845   0.00000
C          C         0.057     0.163     0.844   0.00000
C          C         0.163     0.056     0.155   0.00000
C          C         0.837     0.945     0.155   0.00000
C          C         0.056     0.837     0.155   0.00000
C          C         0.944     0.163     0.155   0.00000
C          C         0.856     0.093     0.127   0.00000
C          C         0.092     0.144     0.127   0.00000
C          C         0.908     0.856     0.127   0.00000
C          C         0.856     0.908     0.873   0.00000
C          C         0.143     0.092     0.873   0.00000
C          C         0.908     0.144     0.873   0.00000
C          C         0.092     0.856     0.873   0.00000
C          C         0.856     0.093     0.873   0.00000
C          C         0.144     0.907     0.873   0.00000
C          C         0.908     0.856     0.873   0.00000
C          C         0.092     0.144     0.872   0.00000
C          C         0.144     0.092     0.127   0.00000
C          C         0.857     0.908     0.127   0.00000
C          C         0.092     0.857     0.127   0.00000
C          C         0.908     0.144     0.127   0.00000
C          C         0.891     0.109     0.151   0.00000
C          C         0.109     0.109     0.151   0.00000
C          C         0.891     0.892     0.151   0.00000
C          C         0.891     0.892     0.848   0.00000
C          C         0.109     0.108     0.848   0.00000
C          C         0.892     0.109     0.849   0.00000
C          C         0.109     0.891     0.849   0.00000
H          H         0.905     0.095     0.189   0.00000
H          H         0.095     0.095     0.190   0.00000
H          H         0.905     0.905     0.190   0.00000
H          H         0.905     0.905     0.810   0.00000
H          H         0.095     0.095     0.810   0.00000
H          H         0.905     0.095     0.811   0.00000
H          H         0.095     0.904     0.811   0.00000
C          C         0.839     0.111     0.079   0.00000
C          C         0.111     0.161     0.079   0.00000
C          C         0.889     0.839     0.079   0.00000
C          C         0.838     0.890     0.921   0.00000
C          C         0.161     0.110     0.921   0.00000
C          C         0.890     0.162     0.922   0.00000
C          C         0.110     0.838     0.922   0.00000
C          C         0.839     0.111     0.921   0.00000
C          C         0.162     0.889     0.922   0.00000
C          C         0.889     0.839     0.921   0.00000
C          C         0.110     0.161     0.921   0.00000
C          C         0.162     0.110     0.078   0.00000
C          C         0.839     0.891     0.079   0.00000
C          C         0.110     0.838     0.079   0.00000
C          C         0.890     0.162     0.079   0.00000
H          H         0.811     0.098     0.061   0.00000
H          H         0.097     0.189     0.061   0.00000
H          H         0.903     0.811     0.061   0.00000
H          H         0.811     0.904     0.939   0.00000
H          H         0.188     0.096     0.939   0.00000
H          H         0.904     0.189     0.940   0.00000
H          H         0.096     0.811     0.940   0.00000
H          H         0.811     0.098     0.939   0.00000
H          H         0.189     0.902     0.939   0.00000
H          H         0.902     0.811     0.939   0.00000
H          H         0.097     0.189     0.939   0.00000
H          H         0.189     0.096     0.060   0.00000
H          H         0.811     0.904     0.061   0.00000
H          H         0.096     0.811     0.061   0.00000
H          H         0.904     0.189     0.061   0.00000
C          C         0.855     0.146     0.054   0.00000
C          C         0.145     0.145     0.054   0.00000
C          C         0.855     0.856     0.054   0.00000
C          C         0.855     0.856     0.946   0.00000
C          C         0.145     0.145     0.946   0.00000
C          C         0.855     0.146     0.946   0.00000
C          C         0.145     0.854     0.946   0.00000
C          C         0.837     0.164     0.000   0.00000
C          C         0.164     0.163    -0.000   0.00000
C          C         0.836     0.837     0.000   0.00000
H          H         0.842     0.197     0.000   0.00000
H          H         0.196     0.158    -0.000   0.00000
H          H         0.803     0.842     0.000   0.00000
H          H         0.841     0.804     0.000   0.00000
H          H         0.159     0.196    -0.000   0.00000
H          H         0.804     0.159     0.000   0.00000
H          H         0.196     0.840     0.000   0.00000
O          O         0.608     0.668     0.131   0.00000
O          O         0.670     0.392     0.131   0.00000
O          O         0.330     0.608     0.131   0.00000
O          O         0.608     0.330     0.869   0.00000
O          O         0.392     0.670     0.869   0.00000
O          O         0.330     0.392     0.869   0.00000
O          O         0.670     0.608     0.869   0.00000
O          O         0.608     0.670     0.869   0.00000
O          O         0.392     0.330     0.869   0.00000
O          O         0.330     0.608     0.869   0.00000
O          O         0.670     0.392     0.869   0.00000
O          O         0.392     0.668     0.130   0.00000
O          O         0.608     0.330     0.131   0.00000
O          O         0.670     0.608     0.131   0.00000
O          O         0.330     0.392     0.128   0.00000
O          O         0.574     0.634     0.201   0.00000
O          O         0.634     0.426     0.200   0.00000
O          O         0.366     0.574     0.199   0.00000
O          O         0.574     0.366     0.800   0.00000
O          O         0.426     0.634     0.800   0.00000
O          O         0.366     0.426     0.800   0.00000
O          O         0.634     0.574     0.800   0.00000
O          O         0.574     0.634     0.800   0.00000
O          O         0.426     0.366     0.800   0.00000
O          O         0.366     0.574     0.800   0.00000
O          O         0.634     0.426     0.800   0.00000
O          O         0.426     0.634     0.201   0.00000
O          O         0.574     0.366     0.200   0.00000
O          O         0.634     0.574     0.200   0.00000
O          O         0.366     0.426     0.197   0.00000
C          C         0.576     0.655     0.155   0.00000
C          C         0.656     0.424     0.154   0.00000
C          C         0.344     0.576     0.154   0.00000
C          C         0.576     0.344     0.845   0.00000
C          C         0.424     0.656     0.846   0.00000
C          C         0.344     0.424     0.845   0.00000
C          C         0.656     0.576     0.845   0.00000
C          C         0.576     0.656     0.846   0.00000
C          C         0.424     0.344     0.846   0.00000
C          C         0.344     0.576     0.845   0.00000
C          C         0.656     0.424     0.845   0.00000
C          C         0.424     0.655     0.155   0.00000
C          C         0.576     0.344     0.154   0.00000
C          C         0.656     0.576     0.154   0.00000
C          C         0.344     0.424     0.152   0.00000
C          C         0.537     0.667     0.128   0.00000
C          C         0.668     0.463     0.127   0.00000
C          C         0.332     0.537     0.127   0.00000
C          C         0.537     0.332     0.873   0.00000
C          C         0.464     0.668     0.873   0.00000
C          C         0.332     0.464     0.872   0.00000
C          C         0.668     0.536     0.873   0.00000
C          C         0.537     0.668     0.873   0.00000
C          C         0.464     0.332     0.873   0.00000
C          C         0.332     0.537     0.872   0.00000
C          C         0.668     0.463     0.873   0.00000
C          C         0.464     0.667     0.127   0.00000
C          C         0.537     0.332     0.127   0.00000
C          C         0.668     0.536     0.127   0.00000
C          C         0.332     0.464     0.125   0.00000
C          C         0.500     0.654     0.152   0.00000
C          C         0.655     0.500     0.152   0.00000
C          C         0.345     0.500     0.150   0.00000
C          C         0.500     0.345     0.848   0.00000
C          C         0.500     0.655     0.848   0.00000
C          C         0.345     0.500     0.848   0.00000
C          C         0.655     0.500     0.848   0.00000
H          H         0.500     0.635     0.190   0.00000
H          H         0.636     0.500     0.190   0.00000
H          H         0.365     0.500     0.188   0.00000
H          H         0.500     0.364     0.810   0.00000
H          H         0.500     0.636     0.810   0.00000
H          H         0.364     0.500     0.810   0.00000
H          H         0.636     0.500     0.810   0.00000
C          C         0.536     0.692     0.079   0.00000
C          C         0.693     0.464     0.079   0.00000
C          C         0.306     0.537     0.078   0.00000
C          C         0.537     0.306     0.921   0.00000
C          C         0.464     0.693     0.922   0.00000
C          C         0.306     0.464     0.921   0.00000
C          C         0.693     0.536     0.921   0.00000
C          C         0.536     0.693     0.922   0.00000
C          C         0.464     0.306     0.921   0.00000
C          C         0.306     0.536     0.921   0.00000
C          C         0.693     0.464     0.921   0.00000
C          C         0.464     0.692     0.079   0.00000
C          C         0.537     0.306     0.078   0.00000
C          C         0.693     0.536     0.079   0.00000
C          C         0.306     0.464     0.077   0.00000
H          H         0.565     0.702     0.061   0.00000
H          H         0.703     0.435     0.061   0.00000
H          H         0.296     0.565     0.061   0.00000
H          H         0.565     0.297     0.939   0.00000
H          H         0.435     0.703     0.940   0.00000
H          H         0.296     0.435     0.939   0.00000
H          H         0.703     0.565     0.939   0.00000
H          H         0.565     0.703     0.940   0.00000
H          H         0.435     0.296     0.939   0.00000
H          H         0.297     0.565     0.938   0.00000
H          H         0.703     0.435     0.939   0.00000
H          H         0.435     0.702     0.061   0.00000
H          H         0.566     0.297     0.061   0.00000
H          H         0.703     0.565     0.061   0.00000
H          H         0.297     0.435     0.059   0.00000
C          C         0.500     0.705     0.055   0.00000
C          C         0.706     0.500     0.054   0.00000
C          C         0.293     0.501     0.053   0.00000
C          C         0.500     0.293     0.945   0.00000
C          C         0.500     0.706     0.946   0.00000
C          C         0.293     0.500     0.945   0.00000
C          C         0.706     0.500     0.946   0.00000
C          C         0.500     0.732     0.001   0.00000
C          C         0.732     0.500    -0.000   0.00000
C          C         0.267     0.501    -0.001   0.00000
H          H         0.527     0.751     0.001   0.00000
H          H         0.752     0.473     0.000   0.00000
H          H         0.248     0.527    -0.001   0.00000
H          H         0.527     0.248    -0.001   0.00000
H          H         0.474     0.751     0.001   0.00000
H          H         0.247     0.474    -0.001   0.00000
H          H         0.752     0.527     0.000   0.00000
