# CIF file generated by openbabel 2.3.2, see http://openbabel.sf.net
data_I
_chemical_name_common ''
_cell_length_a 33.176
_cell_length_b 33.182
_cell_length_c 23.063
_cell_angle_alpha 90
_cell_angle_beta 90
_cell_angle_gamma 90
_space_group_name_H-M_alt 'P 1'
_space_group_name_Hall 'P 1'
loop_
    _symmetry_equiv_pos_as_xyz
    'x,y,z'
loop_
    _atom_site_type_symbol
    _atom_site_label
    _atom_site_Cartn_x
    _atom_site_Cartn_y
    _atom_site_Cartn_z
     Cu  Cu_1     7.56413    7.56550   11.53150
     Cu  Cu_2     5.80580    5.80685   11.53150
     Cu  Cu_3    11.24666   11.24870    3.87458
     Cu  Cu_4    12.50735   12.54280    5.60431
     Cu  Cu_5    16.55482    8.56095   11.50844
     Cu  Cu_6    16.55482    6.07230   11.50844
      O  O_7     6.70155    1.39364    6.66521
      O  O_8     8.36035    1.39364    5.07386
      O  O_9     8.49306    6.50367   10.07853
      O  O_10     6.83426    4.91093   10.12466
      O  O_11    11.61160    9.62278    4.95855
      O  O_12    12.73958   10.81733    6.54989
      O  O_13    15.12826    6.20503   10.12466
      O  O_14    15.19461    8.49459   10.05547
      C  C_15     8.49306    2.95320    6.84971
      C  C_16     7.89589    3.58366    7.93367
      H  H_17     6.93378    3.28502    8.27962
      C  C_18     8.59258    4.67866    8.53331
      C  C_19     9.85327    5.07685    8.07205
      H  H_20    10.35091    5.90640    8.55637
      C  C_21    10.45044    4.38002    7.01115
      C  C_22     9.78692    3.35138    6.41151
      H  H_23    10.21821    2.82047    5.55818
      C  C_24    12.60688    8.46141    6.78052
      C  C_25    13.46945    8.52777    7.88755
      H  H_26    13.86757    9.45687    8.21043
      C  C_27    13.80122    7.33322    8.53331
      C  C_28    13.27040    6.10549    8.07205
      H  H_29    13.56898    5.17639    8.60250
      C  C_30    12.40782    6.07231    6.98809
      C  C_31    12.07606    7.26686    6.34233
      H  H_32    11.41254    7.23368    5.46593
      C  C_33    11.84383    4.74503    6.50377
      H  H_34    12.54053    3.91548    6.80358
      H  H_35    11.81066    4.74503    5.39674
      C  C_36     7.79636    1.82501    6.13476
      C  C_37     7.92906    5.40867    9.66340
      C  C_38    12.27512    9.72233    6.01944
      C  C_39    14.79650    7.33322    9.66340
      O  O_40     4.84369   31.78835    4.61260
      O  O_41     6.50249   31.72199    3.02125
      C  C_42     5.40769   31.32381    3.57476
      C  C_43     4.77734   30.12926    2.92900
      C  C_44     3.61618   29.56516    3.48251
      H  H_45     3.15172   30.02971    4.35891
      C  C_46     5.37451   29.49880    1.82198
      H  H_47     6.27026   29.93016    1.40684
      C  C_48     4.81052   28.33743    1.24540
      C  C_49     5.40769   27.74015    0.00000
      H  H_50     5.24181   26.64515    0.02306
      O  O_51    13.00499   10.95006    2.95206
      O  O_52    14.13297   12.14461    4.56647
      C  C_53    14.06662   11.41461    3.50558
      C  C_54    15.39366   11.01642    2.90594
      C  C_55    16.58800   11.44779    3.45945
      H  H_56    16.58800   12.11143    4.33584
      C  C_57    15.39366   10.18687    1.77585
      H  H_58    14.43156    9.85505    1.36072
      C  C_59    16.62118    9.72233    1.22234
      C  C_60    16.62118    8.85959   -0.02306
      H  H_61    15.72542    8.19595    0.00000
     Cu  Cu_62    27.46973    0.03318   17.36644
     Cu  Cu_63     5.67309   -0.00000   17.36644
     Cu  Cu_64    -0.00000   27.47469   17.36644
     Cu  Cu_65    -0.00000    5.70730   17.34337
     Cu  Cu_66     5.70627   -0.00000    5.69656
     Cu  Cu_67    27.46973    0.03318    5.71962
     Cu  Cu_68    -0.00000   27.47470    5.69656
     Cu  Cu_69     0.03318    5.70730    5.71962
     Cu  Cu_70    25.67822    0.03318   19.07310
     Cu  Cu_71     7.46460   -0.00000   19.09616
     Cu  Cu_72    -0.00000   25.68287   19.09616
     Cu  Cu_73    -0.00000    7.49913   19.07310
     Cu  Cu_74     7.46460   -0.00000    3.96684
     Cu  Cu_75    25.71140    0.03318    3.96684
     Cu  Cu_76    -0.00000   25.71605    3.96684
     Cu  Cu_77    -0.00000    7.49913    3.98990
     Cu  Cu_78    25.61187   25.64968   11.53150
     Cu  Cu_79    25.61187    7.56550   11.53150
     Cu  Cu_80     7.53095   25.64968   11.53150
     Cu  Cu_81    27.37020   27.40833   11.53150
     Cu  Cu_82    27.37020    5.80685   11.53150
     Cu  Cu_83     5.77262   27.37515   11.53150
     Cu  Cu_84    21.92933   21.90012    3.92071
     Cu  Cu_85    21.92933   11.24870    3.92071
     Cu  Cu_86    11.24666   21.93330    3.92071
     Cu  Cu_87    21.92933   11.24870   19.11923
     Cu  Cu_88    11.24666   21.93330   19.14229
     Cu  Cu_89    11.24666   11.24870   19.14229
     Cu  Cu_90    21.92933   21.93330   19.11923
     Cu  Cu_91    20.66865   20.63920    5.65043
     Cu  Cu_92    20.66865   12.50961    5.65043
     Cu  Cu_93    12.50735   20.63920    5.65043
     Cu  Cu_94    20.66865   12.50961   17.41257
     Cu  Cu_95    12.54053   20.67238   17.41257
     Cu  Cu_96    12.54053   12.50961   17.41257
     Cu  Cu_97    20.66865   20.67238   17.41257
     Cu  Cu_98    16.58800   24.62104   11.53150
     Cu  Cu_99    24.61659   16.59100   11.53150
     Cu  Cu_100     8.59258   16.59100   11.53150
     Cu  Cu_101    16.58800   27.10969   11.53150
     Cu  Cu_102    27.10479   16.59100   11.53150
     Cu  Cu_103     6.10438   16.59100   11.53150
      O  O_104    26.47444   31.78835    6.66521
      O  O_105    31.78261    6.70276    6.66521
      O  O_106     1.39339   26.47923    6.66521
      O  O_107    26.47445    1.46001   16.39779
      O  O_108     6.70155   31.78835   16.39779
      O  O_109     1.45974    6.70276   16.39779
      O  O_110    31.78260   26.47923   16.39779
      O  O_111    26.47444   31.78835   16.39779
      O  O_112     6.70155    1.39364   16.39779
      O  O_113     1.39339   26.47923   16.39779
      O  O_114    31.78261    6.70276   16.39779
      O  O_115     6.70155   31.78835    6.66521
      O  O_116    26.47445    1.46001    6.66521
      O  O_117    31.78260   26.47923    6.66521
      O  O_118     1.45974    6.70276    6.66521
      O  O_119    24.81565   31.78835    5.07386
      O  O_120    31.78261    8.36186    5.07386
      O  O_121     1.39339   24.82014    5.07386
      O  O_122    24.81565    1.39364   17.96608
      O  O_123     8.36035   31.78835   17.98914
      O  O_124     1.39339    8.36186   17.94301
      O  O_125    31.78260   24.82014   17.96608
      O  O_126    24.81565   31.78835   17.98914
      O  O_127     8.36035    1.39364   17.98914
      O  O_128     1.39339   24.82014   17.98914
      O  O_129    31.78261    8.36186   17.98914
      O  O_130     8.36035   31.78835    5.07386
      O  O_131    24.81565    1.39364    5.09692
      O  O_132    31.78260   24.82014    5.09692
      O  O_133     1.39339    8.36186    5.11999
      O  O_134    24.74929   26.67833   10.05547
      O  O_135    26.70668    8.49459   10.10159
      O  O_136     6.43614   24.68741   10.12466
      O  O_137    24.68294    6.50367   12.93834
      O  O_138     8.49305   26.74469   12.91528
      O  O_139     6.50249    8.49459   12.93834
      O  O_140    26.67350   24.75377   13.00753
      O  O_141    24.68294   26.74469   12.93834
      O  O_142     8.49306    6.43731   12.93834
      O  O_143     6.50249   24.75377   13.00753
      O  O_144    26.70668    8.49459   12.93834
      O  O_145     8.42670   26.67833   10.05547
      O  O_146    24.68294    6.50367   10.10159
      O  O_147    26.73985   24.68741   10.17078
      O  O_148     6.50249    8.49459   10.12466
      O  O_149    26.34174   28.33743   10.12466
      O  O_150    28.29913    6.83549   10.12466
      O  O_151     4.84369   26.34651   10.12466
      O  O_152    26.34174    4.91093   12.93834
      O  O_153     6.80108   28.27106   12.93834
      O  O_154     4.91005    6.83549   12.93834
      O  O_155    28.26595   26.37969   12.93834
      O  O_156    26.34174   28.33743   12.93834
      O  O_157     6.83426    4.84457   12.93834
      O  O_158     4.84369   26.34651   12.93834
      O  O_159    28.29913    6.83549   12.93834
      O  O_160     6.83425   28.33743   10.14772
      O  O_161    26.34174    4.91093   10.12466
      O  O_162    28.26595   26.41287   10.12466
      O  O_163     4.91005    6.83549   10.12466
      O  O_164    21.56440   23.55922    5.00467
      O  O_165    23.55496   11.61370    5.00467
      O  O_166     9.62104   21.56830    5.02773
      O  O_167    21.56440    9.62278   18.01220
      O  O_168    11.61160   23.55922   18.01220
      O  O_169     9.62104   11.61370   18.05833
      O  O_170    23.55496   21.56830   18.01220
      O  O_171    21.56440   23.55922   18.01220
      O  O_172    11.61160    9.62278   18.01220
      O  O_173     9.62104   21.56830   18.05833
      O  O_174    23.55496   11.61370   18.05833
      O  O_175    11.61160   23.55922    5.00467
      O  O_176    21.56440    9.62278    5.00467
      O  O_177    23.55496   21.56830    5.05080
      O  O_178     9.62104   11.61370    5.00467
      O  O_179    20.43641   22.36467    6.59602
      O  O_180    22.36062   12.74189    6.59602
      O  O_181    10.81537   20.40693    6.59602
      O  O_182    20.37006   10.81733   16.46698
      O  O_183    12.80593   22.36467   16.46698
      O  O_184    10.81537   12.74189   16.46698
      O  O_185    22.36062   20.37375   16.46698
      O  O_186    20.37006   22.36467   16.46698
      O  O_187    12.80593   10.81733   16.46698
      O  O_188    10.81537   20.44011   16.46698
      O  O_189    22.36062   12.74189   16.46698
      O  O_190    12.73958   22.36467    6.59602
      O  O_191    20.43641   10.81733    6.59602
      O  O_192    22.36062   20.37375    6.59602
      O  O_193    10.81537   12.80825    6.54989
      O  O_194    17.98139   27.01015   10.12466
      O  O_195    27.00526   15.19736   10.12466
      O  O_196     6.17073   17.98464   10.12466
      O  O_197    17.98139    6.17185   12.86915
      O  O_198    15.19461   27.01015   12.93834
      O  O_199     6.17073   15.19736   12.93834
      O  O_200    27.00526   17.98464   12.93834
      O  O_201    17.98139   27.01015   12.93834
      O  O_202    15.19461    6.17185   12.93834
      O  O_203     6.17073   17.98464   12.93834
      O  O_204    27.00526   15.19736   12.93834
      O  O_205    15.19461   27.01015   10.12466
      O  O_206    17.91504    6.17185   10.05547
      O  O_207    27.00526   17.98464   10.12466
      O  O_208     6.20391   15.19736   10.12466
      O  O_209    17.98139   24.72059   10.12466
      O  O_210    24.71612   15.19736   10.12466
      O  O_211     8.45988   17.98464   10.12466
      O  O_212    17.91504    8.46141   12.93834
      O  O_213    15.19461   24.72059   12.93834
      O  O_214     8.49305   15.19736   12.93834
      O  O_215    24.71612   17.98464   12.93834
      O  O_216    17.98139   24.75377   12.93834
      O  O_217    15.12825    8.46141   12.86915
      O  O_218     8.49305   17.98464   12.93834
      O  O_219    24.71612   15.19736   12.93834
      O  O_220    15.19461   24.72059   10.12466
      O  O_221    17.98139    8.46141   10.12466
      O  O_222    24.71612   17.98464   10.12466
      O  O_223     8.49306   15.19736   10.12466
      C  C_224    24.64977   30.26198    6.84971
      C  C_225    30.25651    8.52777    6.87277
      C  C_226     2.91949   24.65422    6.87277
      C  C_227    24.64977    2.95320   16.19023
      C  C_228     8.49305   30.26198   16.19023
      C  C_229     2.95266    8.52777   16.16716
      C  C_230    30.25651   24.68741   16.19023
      C  C_231    24.64977   30.26198   16.19023
      C  C_232     8.52623    2.92001   16.19023
      C  C_233     2.91949   24.65422   16.21329
      C  C_234    30.25651    8.52777   16.19023
      C  C_235     8.49306   30.26198    6.87277
      C  C_236    24.64977    2.95320    6.87277
      C  C_237    30.25651   24.68741    6.89584
      C  C_238     2.95266    8.52777    6.87277
      C  C_239    25.28011   29.59834    7.93367
      C  C_240    29.59299    7.89732    7.95673
      C  C_241     3.58301   25.25150    7.95673
      C  C_242    25.24693    3.61684   15.10626
      C  C_243     7.89589   29.59834   15.10626
      C  C_244     3.61618    7.89732   15.10626
      C  C_245    29.59299   25.28468   15.10626
      C  C_246    25.24693   29.59834   15.10626
      C  C_247     7.92906    3.58365   15.10626
      C  C_248     3.58301   25.28468   15.12933
      C  C_249    29.59299    7.89732   15.10626
      C  C_250     7.89589   29.59834    7.95673
      C  C_251    25.24693    3.61684    7.95673
      C  C_252    29.59299   25.28469    7.97980
      C  C_253     3.61618    7.93050    7.95673
      H  H_254    26.24221   29.89698    8.27962
      H  H_255    29.89157    6.93504    8.30268
      H  H_256     3.25125   26.24696    8.30268
      H  H_257    26.24222    3.31820   14.76032
      H  H_258     6.93378   29.89698   14.76032
      H  H_259     3.31760    6.93504   14.73726
      H  H_260    29.89157   26.28014   14.78338
      H  H_261    26.24221   29.93016   14.76032
      H  H_262     6.93378    3.25183   14.76032
      H  H_263     3.28442   26.24696   14.78338
      H  H_264    29.89157    6.93504   14.76032
      H  H_265     6.93378   29.89698    8.27962
      H  H_266    26.24222    3.31820    8.30268
      H  H_267    29.89157   26.28014    8.32574
      H  H_268     3.31760    6.93504    8.30268
      C  C_269    24.61659   28.50334    8.53331
      C  C_270    28.53136    8.59414    8.55637
      C  C_271     4.64464   24.58786    8.57944
      C  C_272    24.58341    4.67866   14.48356
      C  C_273     8.55941   28.53652   14.48356
      C  C_274     4.67781    8.59414   14.48356
      C  C_275    28.49818   24.65422   14.50663
      C  C_276    24.58341   28.53652   14.48356
      C  C_277     8.59258    4.64548   14.48356
      C  C_278     4.67781   24.62104   14.50663
      C  C_279    28.49818    8.59414   14.50663
      C  C_280     8.55941   28.50334    8.55637
      C  C_281    24.58341    4.67866    8.57944
      C  C_282    28.53136   24.62104    8.57944
      C  C_283     4.67781    8.59414    8.57944
      C  C_284    23.35590   28.10515    8.09511
      C  C_285    28.13325    9.85505    8.11818
      C  C_286     5.04275   23.32695    8.11818
      C  C_287    23.32273    5.07684   14.92176
      C  C_288     9.85327   28.13833   14.92176
      C  C_289     5.07593    9.85505   14.94482
      C  C_290    28.10007   23.36012   14.94482
      C  C_291    23.32273   28.13833   14.94482
      C  C_292     9.85327    5.04366   14.94482
      C  C_293     5.07593   23.36012   14.96789
      C  C_294    28.13325    9.85505   14.94482
      C  C_295     9.82010   28.10515    8.11818
      C  C_296    23.32273    5.07685    8.11818
      C  C_297    28.13325   23.36013    8.14124
      C  C_298     5.07593    9.85505    8.11818
      H  H_299    22.85826   27.27560    8.57944
      H  H_300    27.27067   10.35278    8.60250
      H  H_301     5.87215   22.82922    8.62556
      H  H_302    22.82509    5.90639   14.43744
      H  H_303    10.31773   27.30878   14.43744
      H  H_304     5.90533   10.35278   14.46050
      H  H_305    27.27067   22.89558   14.46050
      H  H_306    22.82509   27.30878   14.46050
      H  H_307    10.35091    5.87321   14.43744
      H  H_308     5.90533   22.86240   14.46050
      H  H_309    27.27067   10.35278   14.46050
      H  H_310    10.31773   27.27560    8.60250
      H  H_311    22.82509    5.90640    8.60250
      H  H_312    27.30385   22.86240    8.62556
      H  H_313     5.90533   10.35278    8.60250
      C  C_314    22.72556   28.80198    7.03421
      C  C_315    28.79677   10.48551    7.05728
      C  C_316     4.37923   22.69649    7.05728
      C  C_317    22.69238    4.41320   15.98266
      C  C_318    10.45044   28.80197   16.00572
      C  C_319     4.37923   10.48551   16.00572
      C  C_320    28.79676   22.72967   16.00572
      C  C_321    22.69238   28.80197   16.02878
      C  C_322    10.45044    4.38002   16.00572
      C  C_323     4.37923   22.72967   16.00572
      C  C_324    28.79677   10.48551   16.00572
      C  C_325    10.45044   28.80198    7.05728
      C  C_326    22.69238    4.38002    7.05728
      C  C_327    28.79676   22.72967    7.08034
      C  C_328     4.41241   10.48551    7.05728
      C  C_329    23.38908   29.83062    6.41151
      C  C_330    29.85840    9.78869    6.43458
      C  C_331     3.31760   23.39331    6.43458
      C  C_332    23.38908    3.35138   16.62842
      C  C_333     9.78692   29.86380   16.62842
      C  C_334     3.35077    9.78869   16.60536
      C  C_335    29.82522   23.42649   16.62842
      C  C_336    23.38908   29.86380   16.65149
      C  C_337     9.78692    3.31820   16.65149
      C  C_338     3.35077   23.39331   16.65149
      C  C_339    29.82522    9.78869   16.62842
      C  C_340     9.78692   29.83062    6.43458
      C  C_341    23.38908    3.35138    6.43458
      C  C_342    29.82522   23.42649    6.45764
      C  C_343     3.35078    9.78869    6.43458
      H  H_344    22.95779   30.36153    5.58125
      H  H_345    30.35604   10.22006    5.58125
      H  H_346     2.81996   22.96194    5.58125
      H  H_347    22.92461    2.82047   17.45869
      H  H_348    10.21821   30.36153   17.48175
      H  H_349     2.81996   10.22005   17.45869
      H  H_350    30.35604   22.96194   17.45869
      H  H_351    22.95779   30.36153   17.50482
      H  H_352    10.21821    2.82047   17.50482
      H  H_353     2.81996   22.96194   17.48175
      H  H_354    30.35604   10.22005   17.48175
      H  H_355    10.21821   30.36153    5.58125
      H  H_356    22.95779    2.82047    5.58125
      H  H_357    30.35604   22.96194    5.60431
      H  H_358     2.81996   10.22006    5.60431
      C  C_359    20.56912   24.72059    6.82665
      C  C_360    24.71612   12.60916    6.82665
      C  C_361     8.45988   20.57284    6.82665
      C  C_362    20.53594    8.46141   16.21329
      C  C_363    12.60688   24.72059   16.21329
      C  C_364     8.45988   12.60916   16.23635
      C  C_365    24.71612   20.57284   16.21329
      C  C_366    20.56912   24.72059   16.21329
      C  C_367    12.60688    8.46141   16.21329
      C  C_368     8.45988   20.57284   16.23635
      C  C_369    24.71612   12.60916   16.23635
      C  C_370    12.60688   24.72059    6.82665
      C  C_371    20.56912    8.46141    6.82665
      C  C_372    24.71612   20.57284    6.84971
      C  C_373     8.49306   12.64234    6.80358
      C  C_374    19.70654   24.68741    7.93367
      C  C_375    24.68294   13.47189    7.93367
      C  C_376     8.49306   19.71011    7.93367
      C  C_377    19.67337    8.49459   15.10626
      C  C_378    13.50263   24.68741   15.12933
      C  C_379     8.52623   13.47189   15.12933
      C  C_380    24.68294   19.71011   15.10626
      C  C_381    19.67336   24.68741   15.12933
      C  C_382    13.46945    8.49459   15.10626
      C  C_383     8.49305   19.71011   15.12933
      C  C_384    24.68294   13.47189   15.12933
      C  C_385    13.46945   24.65422    7.93367
      C  C_386    19.67337    8.49459    7.91061
      C  C_387    24.68294   19.71011    7.93367
      C  C_388     8.52623   13.50507    7.91061
      H  H_389    19.27525   23.72513    8.25655
      H  H_390    23.72084   13.90326    8.25655
      H  H_391     9.45516   19.27874    8.27962
      H  H_392    19.24208    9.45687   14.76032
      H  H_393    13.90074   23.75831   14.78338
      H  H_394     9.45516   13.90326   14.80645
      H  H_395    23.75401   19.27874   14.78338
      H  H_396    19.27525   23.75831   14.78338
      H  H_397    13.90074    9.42369   14.76032
      H  H_398     9.45516   19.27874   14.80645
      H  H_399    23.72084   13.90326   14.80645
      H  H_400    13.90074   23.72513    8.25655
      H  H_401    19.27526    9.45687    8.25655
      H  H_402    23.75401   19.27874    8.27962
      H  H_403     9.45516   13.90326    8.23349
      C  C_404    19.34161   25.88196    8.57944
      C  C_405    25.87728   13.83689    8.57944
      C  C_406     7.29872   19.34511    8.57944
      C  C_407    19.30843    7.30004   14.46050
      C  C_408    13.83439   25.88196   14.48356
      C  C_409     7.33189   13.83689   14.48356
      C  C_410    25.87728   19.34510   14.48356
      C  C_411    19.34161   25.88196   14.48356
      C  C_412    13.80122    7.30004   14.46050
      C  C_413     7.33189   19.34510   14.48356
      C  C_414    25.87728   13.83689   14.48356
      C  C_415    13.83439   25.84878    8.57944
      C  C_416    19.34161    7.30004    8.55637
      C  C_417    25.87728   19.34511    8.57944
      C  C_418     7.33189   13.83689    8.55637
      C  C_419    19.87242   27.07651    8.11818
      C  C_420    27.07162   13.30598    8.11818
      C  C_421     6.10438   19.87602    8.11818
      C  C_422    19.83925    6.10549   14.92176
      C  C_423    13.30357   27.10969   14.92176
      C  C_424     6.10438   13.30598   14.94482
      C  C_425    27.10479   19.90920   14.92176
      C  C_426    19.87242   27.10969   14.94482
      C  C_427    13.27040    6.07230   14.92176
      C  C_428     6.10438   19.87601   14.94482
      C  C_429    27.07162   13.30598   14.94482
      C  C_430    13.30357   27.07651    8.11818
      C  C_431    19.87242    6.10549    8.09511
      C  C_432    27.10479   19.90920    8.14124
      C  C_433     6.10438   13.30598    8.11818
      H  H_434    19.57384   28.00561    8.62556
      H  H_435    28.00054   13.60462    8.62556
      H  H_436     5.17545   19.57738    8.62556
      H  H_437    19.54066    5.17639   14.41438
      H  H_438    13.56898   28.00561   14.43744
      H  H_439     5.17546   13.60462   14.43744
      H  H_440    28.00054   19.61056   14.41438
      H  H_441    19.57384   28.03879   14.43744
      H  H_442    13.56898    5.17639   14.41438
      H  H_443     5.17545   19.57738   14.41438
      H  H_444    28.00054   13.60462   14.43744
      H  H_445    13.56898   28.00561    8.62556
      H  H_446    19.57384    5.17639    8.60250
      H  H_447    28.00054   19.61056    8.64862
      H  H_448     5.20863   13.60462    8.64862
      C  C_449    20.76817   27.14288    7.03421
      C  C_450    27.13797   12.41007    7.03421
      C  C_451     6.03803   20.77193    7.03421
      C  C_452    20.73500    6.03912   16.00572
      C  C_453    12.40782   27.14287   16.02878
      C  C_454     6.03803   12.44325   16.02878
      C  C_455    27.13797   20.77193   16.02878
      C  C_456    20.76817   27.14287   16.02878
      C  C_457    12.40782    6.03912   16.02878
      C  C_458     6.03803   20.77193   16.02878
      C  C_459    27.13797   12.41007   16.02878
      C  C_460    12.40782   27.14288    7.03421
      C  C_461    20.73500    6.03912    7.01115
      C  C_462    27.13797   20.77193    7.05728
      C  C_463     6.07121   12.44325    7.03421
      C  C_464    21.09993   25.94832    6.38845
      C  C_465    25.94363   12.07825    6.38845
      C  C_466     7.23237   21.10375    6.38845
      C  C_467    21.06676    7.23367   16.65149
      C  C_468    12.07606   25.94832   16.65149
      C  C_469     7.23237   12.07825   16.67455
      C  C_470    25.91046   21.10375   16.65149
      C  C_471    21.09993   25.94832   16.67455
      C  C_472    12.07606    7.26686   16.67455
      C  C_473     7.23237   21.10375   16.67455
      C  C_474    25.94363   12.07825   16.67455
      C  C_475    12.07606   25.91514    6.38845
      C  C_476    21.09993    7.23368    6.38845
      C  C_477    25.91046   21.10375    6.41151
      C  C_478     7.26554   12.11143    6.36539
      H  H_479    21.76345   25.94832    5.53512
      H  H_480    25.94363   11.41461    5.53512
      H  H_481     7.23237   21.76739    5.53512
      H  H_482    21.73028    7.23367   17.50482
      H  H_483    11.41254   25.91514   17.52788
      H  H_484     7.23237   11.41461   17.52788
      H  H_485    25.91046   21.76739   17.50482
      H  H_486    21.76345   25.91514   17.52788
      H  H_487    11.41254    7.26686   17.52788
      H  H_488     7.23237   21.76739   17.52788
      H  H_489    25.94363   11.41461   17.52788
      H  H_490    11.41254   25.94832    5.53512
      H  H_491    21.76346    7.23368    5.53512
      H  H_492    25.91046   21.76739    5.55818
      H  H_493     7.23237   11.44779    5.51206
      C  C_494    21.33216   28.43697    6.54989
      C  C_495    28.43183   11.87916    6.54989
      C  C_496     4.74417   21.30285    6.54989
      C  C_497    21.29899    4.74502   16.49004
      C  C_498    11.84383   28.43697   16.51311
      C  C_499     4.74417   11.87916   16.51311
      C  C_500    28.43183   21.33602   16.51311
      C  C_501    21.33216   28.43697   16.53617
      C  C_502    11.84383    4.74502   16.51311
      C  C_503     4.74417   21.33602   16.51311
      C  C_504    28.43183   11.87916   16.51311
      C  C_505    11.84383   28.43697    6.54989
      C  C_506    21.29899    4.74503    6.54989
      C  C_507    28.43183   21.33603    6.57295
      C  C_508     4.74417   11.87916    6.54989
      H  H_509    20.63547   29.26652    6.84971
      H  H_510    29.26123   12.54279    6.84971
      H  H_511     3.91477   20.63920    6.84971
      H  H_512    20.60229    3.91547   16.19023
      H  H_513    12.54053   29.26652   16.21329
      H  H_514     3.91477   12.54279   16.21329
      H  H_515    29.26123   20.67238   16.21329
      H  H_516    20.63547   29.26652   16.23635
      H  H_517    12.54053    3.91547   16.23635
      H  H_518     3.91477   20.63920   16.19023
      H  H_519    29.26123   12.54279   16.21329
      H  H_520    12.54053   29.26652    6.84971
      H  H_521    20.63547    3.91548    6.82665
      H  H_522    29.26123   20.67239    6.84971
      H  H_523     3.94794   12.54279    6.84971
      H  H_524    21.33216   28.43697    5.44287
      H  H_525    28.46501   11.84597    5.44287
      H  H_526     4.71099   21.33603    5.46593
      H  H_527    21.29899    4.71184   17.57401
      H  H_528    11.81065   28.43697   17.59707
      H  H_529     4.71099   11.84597   17.59707
      H  H_530    28.43183   21.36921   17.59707
      H  H_531    21.33216   28.43697   17.62013
      H  H_532    11.84383    4.74502   17.62013
      H  H_533     4.71099   21.33602   17.59707
      H  H_534    28.46501   11.84597   17.62013
      H  H_535    11.84383   28.47015    5.46593
      H  H_536    21.33217    4.71184    5.44287
      H  H_537    28.43183   21.36921    5.46593
      H  H_538     4.74417   11.84597    5.46593
      C  C_539    25.37964   31.35699    6.13476
      C  C_540    31.35132    7.79777    6.15782
      C  C_541     1.82468   25.38423    6.13476
      C  C_542    25.37964    1.85819   16.90518
      C  C_543     7.79636   31.35699   16.90518
      C  C_544     1.82468    7.79777   16.88212
      C  C_545    31.35132   25.38423   16.90518
      C  C_546    25.37964   31.35699   16.92824
      C  C_547     7.79636    1.82501   16.92824
      C  C_548     1.82468   25.38423   16.92824
      C  C_549    31.35132    7.79777   16.90518
      C  C_550     7.79636   31.35699    6.15782
      C  C_551    25.37964    1.85819    6.15782
      C  C_552    31.35132   25.38423    6.15782
      C  C_553     1.85786    7.79777    6.18088
      C  C_554    25.28011   27.77333    9.66340
      C  C_555    27.76831    7.93050    9.68646
      C  C_556     5.37451   25.25150    9.70952
      C  C_557    25.24693    5.44185   13.37654
      C  C_558     7.89589   27.80651   13.35348
      C  C_559     5.44086    7.93050   13.35348
      C  C_560    27.76831   25.31786   13.39960
      C  C_561    25.24693   27.80651   13.35348
      C  C_562     7.92906    5.37548   13.35348
      C  C_563     5.40769   25.28468   13.37654
      C  C_564    27.76831    7.93050   13.37654
      C  C_565     7.89589   27.77333    9.68646
      C  C_566    25.24693    5.40867    9.68646
      C  C_567    27.80149   25.28469    9.70952
      C  C_568     5.44086    7.93050    9.70952
      C  C_569    20.90088   23.45967    6.08863
      C  C_570    23.45543   12.27734    6.08863
      C  C_571     9.72057   20.87148    6.08863
      C  C_572    20.86770    9.72233   16.95131
      C  C_573    12.30829   23.45967   16.95131
      C  C_574     9.72057   12.27734   16.97437
      C  C_575    23.45543   20.87148   16.95131
      C  C_576    20.86770   23.45967   16.95131
      C  C_577    12.30829    9.72233   16.95131
      C  C_578     9.72057   20.90466   16.97437
      C  C_579    23.45543   12.27734   16.97437
      C  C_580    12.27512   23.45967    6.08863
      C  C_581    20.86770    9.72233    6.08863
      C  C_582    23.45543   20.87148    6.11169
      C  C_583     9.75374   12.31052    6.06557
      C  C_584    18.37950   25.84878    9.70952
      C  C_585    25.84410   14.79917    9.70952
      C  C_586     7.33189   18.38283    9.70952
      C  C_587    18.31315    7.33322   13.33041
      C  C_588    14.82967   25.88196   13.35348
      C  C_589     7.33189   14.83235   13.35348
      C  C_590    25.87728   18.34964   13.35348
      C  C_591    18.34632   25.88196   13.35348
      C  C_592    14.79649    7.30004   13.33041
      C  C_593     7.33189   18.38283   13.35348
      C  C_594    25.84410   14.79917   13.35348
      C  C_595    14.79649   25.84878    9.70952
      C  C_596    18.34633    7.33322    9.66340
      C  C_597    25.87728   18.38283    9.70952
      C  C_598     7.33189   14.83235    9.70952
      O  O_599    28.33230    1.42683    4.61260
      O  O_600     1.39339    4.84457    4.61260
      O  O_601    31.78260   28.33743    4.61260
      O  O_602    28.33230   31.78835   18.42734
      O  O_603     4.84369    1.39364   18.42734
      O  O_604    31.78261    4.84457   18.45040
      O  O_605     1.39339   28.33743   18.45040
      O  O_606    28.33230    1.42682   18.45040
      O  O_607     4.84369   31.72199   18.45040
      O  O_608    31.78260   28.33743   18.45040
      O  O_609     1.39339    4.84457   18.45040
      O  O_610     4.84370    1.39364    4.63566
      O  O_611    28.33230   31.78835    4.63566
      O  O_612     1.39339   28.33743    4.63566
      O  O_613    31.78261    4.84457    4.61260
      O  O_614    26.67350    1.46001    3.02125
      O  O_615     1.45974    6.50367    3.04432
      O  O_616    31.71625   26.67833    3.02125
      O  O_617    26.70668   31.78835   20.04175
      O  O_618     6.43614    1.39364   20.04175
      O  O_619    31.78261    6.47049   20.04175
      O  O_620     1.39339   26.71151   20.04175
      O  O_621    26.67350    1.46001   20.01868
      O  O_622     6.50249   31.72199   20.04175
      O  O_623    31.71625   26.67833   20.04175
      O  O_624     1.45974    6.50367   19.99562
      O  O_625     6.46932    1.39364    3.02125
      O  O_626    26.70668   31.78835    3.02125
      O  O_627     1.39339   26.71151    3.02125
      O  O_628    31.78261    6.47049    3.02125
      C  C_629    27.76831    1.89137    3.57476
      C  C_630     1.89103    5.40867    3.57476
      C  C_631    31.31814   27.77333    3.57476
      C  C_632    27.76831   31.35699   19.48824
      C  C_633     5.37451    1.82501   19.48824
      C  C_634    31.35132    5.40866   19.48824
      C  C_635     1.85785   27.77333   19.51130
      C  C_636    27.76831    1.89137   19.48824
      C  C_637     5.40769   31.29062   19.48824
      C  C_638    31.28497   27.77333   19.48824
      C  C_639     1.89103    5.40866   19.46517
      C  C_640     5.40769    1.85819    3.57476
      C  C_641    27.76831   31.35699    3.57476
      C  C_642     1.85785   27.77333    3.57476
      C  C_643    31.31814    5.40867    3.57476
      C  C_644    28.39865    3.08593    2.92900
      C  C_645     3.05219    4.77821    2.92900
      C  C_646    30.12380   28.40379    2.92900
      C  C_647    28.39865   30.12925   20.13400
      C  C_648     4.74417    3.05274   20.13400
      C  C_649    30.12381    4.77821   20.13400
      C  C_650     3.05219   28.40379   20.13400
      C  C_651    28.39865    3.08592   20.13400
      C  C_652     4.77734   30.09607   20.13400
      C  C_653    30.12380   28.43697   20.13400
      C  C_654     3.05219    4.77821   20.11094
      C  C_655     4.74417    3.05274    2.92900
      C  C_656    28.43183   30.12926    2.92900
      C  C_657     3.05219   28.43697    2.92900
      C  C_658    30.12381    4.77821    2.92900
      C  C_659    29.55981    3.61684    3.48251
      C  C_660     3.61618    3.61684    3.48251
      C  C_661    29.55981   29.56516    3.50558
      C  C_662    29.55981   29.59834   19.55742
      C  C_663     3.61618    3.58365   19.55742
      C  C_664    29.59299    3.61684   19.58049
      C  C_665     3.61618   29.56516   19.58049
      H  H_666    30.02428    3.15229    4.35891
      H  H_667     3.15172    3.15229    4.38197
      H  H_668    30.02428   30.02971    4.38197
      H  H_669    30.02428   30.02971   18.68103
      H  H_670     3.15172    3.15229   18.68103
      H  H_671    30.02428    3.15229   18.70409
      H  H_672     3.15172   29.99652   18.70409
      C  C_673    27.83466    3.68320    1.82198
      C  C_674     3.68254    5.34230    1.82198
      C  C_675    29.49346   27.83970    1.82198
      C  C_676    27.80149   29.53198   21.24102
      C  C_677     5.34133    3.65002   21.24102
      C  C_678    29.52664    5.37548   21.26409
      C  C_679     3.64936   27.80651   21.26409
      C  C_680    27.83466    3.68320   21.24102
      C  C_681     5.37451   29.49879   21.26409
      C  C_682    29.49346   27.83969   21.24102
      C  C_683     3.64936    5.34230   21.24102
      C  C_684     5.37451    3.65002    1.79891
      C  C_685    27.83466   29.56516    1.82198
      C  C_686     3.64936   27.80651    1.82198
      C  C_687    29.52664    5.37548    1.82198
      H  H_688    26.90574    3.25184    1.40684
      H  H_689     3.21807    6.27140    1.40684
      H  H_690    29.95792   26.91060    1.40684
      H  H_691    26.90573   29.99652   21.65616
      H  H_692     6.23709    3.18547   21.65616
      H  H_693    29.99110    6.27140   21.67922
      H  H_694     3.18489   26.91060   21.67922
      H  H_695    26.90574    3.25183   21.65616
      H  H_696     6.27026   29.93016   21.65616
      H  H_697    29.95792   26.91060   21.65616
      H  H_698     3.21807    6.27140   21.65616
      H  H_699     6.27026    3.18547    1.38378
      H  H_700    26.90573   29.99653    1.40684
      H  H_701     3.18489   26.91060    1.40684
      H  H_702    29.99110    6.27140    1.40684
      C  C_703    28.36548    4.84457    1.24540
      C  C_704     4.81052    4.81139    1.24540
      C  C_705    28.36548   28.40379    1.24540
      C  C_706    28.36548   28.40379   21.81760
      C  C_707     4.81052    4.81139   21.81760
      C  C_708    28.36548    4.84457   21.81760
      C  C_709     4.81052   28.33743   21.81760
      C  C_710    27.76831    5.44185    0.00000
      C  C_711     5.44086    5.40867    0.00000
      C  C_712    27.73513   27.77333    0.00000
      H  H_713    27.93419    6.53685    0.00000
      H  H_714     6.50250    5.24276    0.00000
      H  H_715    26.64032   27.93924    0.00000
      H  H_716    27.90101   26.67833    0.00000
      H  H_717     5.27498    6.50367    0.00000
      H  H_718    26.67350    5.27594    0.00000
      H  H_719     6.50249   27.87288    0.00000
      O  O_720    20.17101   22.16558    3.02125
      O  O_721    22.22792   13.00734    3.02125
      O  O_722    10.94808   20.17465    3.02125
      O  O_723    20.17101   10.95006   20.04175
      O  O_724    13.00499   22.23194   20.04175
      O  O_725    10.94808   13.00734   20.04175
      O  O_726    22.22792   20.17465   20.04175
      O  O_727    20.17101   22.23194   20.04175
      O  O_728    13.00499   10.95006   20.04175
      O  O_729    10.94808   20.17465   20.04175
      O  O_730    22.22792   13.00734   20.04175
      O  O_731    13.00499   22.16558    2.99819
      O  O_732    20.17101   10.95006    3.02125
      O  O_733    22.22792   20.17465    3.02125
      O  O_734    10.94808   13.00734    2.95206
      O  O_735    19.04302   21.03739    4.63566
      O  O_736    21.03358   14.13553    4.61260
      O  O_737    12.14241   19.04647    4.58954
      O  O_738    19.04302   12.14461   18.45040
      O  O_739    14.13297   21.03739   18.45040
      O  O_740    12.14241   14.13553   18.45040
      O  O_741    21.03358   19.04646   18.45040
      O  O_742    19.04302   21.03739   18.45040
      O  O_743    14.13297   12.14461   18.45040
      O  O_744    12.14241   19.04646   18.45040
      O  O_745    21.03358   14.13553   18.45040
      O  O_746    14.13297   21.03739    4.63566
      O  O_747    19.04302   12.14461    4.61260
      O  O_748    21.03358   19.04647    4.61260
      O  O_749    12.14241   14.13553    4.54341
      C  C_750    19.10938   21.73421    3.57476
      C  C_751    21.76346   14.06917    3.55170
      C  C_752    11.41254   19.11283    3.55170
      C  C_753    19.10938   11.41461   19.48824
      C  C_754    14.06662   21.76739   19.51130
      C  C_755    11.41254   14.06917   19.48824
      C  C_756    21.76346   19.11283   19.48824
      C  C_757    19.10938   21.76739   19.51130
      C  C_758    14.06662   11.41461   19.51130
      C  C_759    11.41254   19.11283   19.48824
      C  C_760    21.76346   14.06917   19.48824
      C  C_761    14.06662   21.73421    3.57476
      C  C_762    19.10938   11.41461    3.55170
      C  C_763    21.76346   19.11283    3.55170
      C  C_764    11.41254   14.06917    3.50558
      C  C_765    17.81551   22.13239    2.95206
      C  C_766    22.16157   15.36327    2.92900
      C  C_767    11.01443   17.81873    2.92900
      C  C_768    17.81551   11.01642   20.13400
      C  C_769    15.39366   22.16557   20.13400
      C  C_770    11.01443   15.39645   20.11094
      C  C_771    22.16157   17.78555   20.13400
      C  C_772    17.81551   22.16557   20.13400
      C  C_773    15.39366   11.01642   20.13400
      C  C_774    11.01443   17.81873   20.11094
      C  C_775    22.16157   15.36326   20.13400
      C  C_776    15.39366   22.13239    2.92900
      C  C_777    17.81551   11.01642    2.92900
      C  C_778    22.16157   17.78555    2.92900
      C  C_779    11.01443   15.39645    2.88287
      C  C_780    16.58800   21.70103    3.50558
      C  C_781    21.73028   16.59100    3.50558
      C  C_782    11.44572   16.59100    3.45945
      C  C_783    16.58800   11.44779   19.55742
      C  C_784    16.58800   21.73421   19.55742
      C  C_785    11.44572   16.59100   19.55742
      C  C_786    21.73028   16.59100   19.55742
      H  H_787    16.58800   21.07057    4.38197
      H  H_788    21.09993   16.59100    4.38197
      H  H_789    12.10924   16.59100    4.33584
      H  H_790    16.58800   12.07825   18.68103
      H  H_791    16.58800   21.10375   18.68103
      H  H_792    12.07606   16.59100   18.68103
      H  H_793    21.09993   16.59100   18.68103
      C  C_794    17.78233   22.96194    1.82198
      C  C_795    22.99097   15.39645    1.82198
      C  C_796    10.15185   17.81873    1.79891
      C  C_797    17.78234   10.15369   21.24102
      C  C_798    15.39366   22.99512   21.26409
      C  C_799    10.15185   15.39645   21.24102
      C  C_800    22.99097   17.78555   21.24102
      C  C_801    17.78233   22.99512   21.26409
      C  C_802    15.39366   10.15369   21.24102
      C  C_803    10.15185   17.78555   21.24102
      C  C_804    22.99097   15.39645   21.24102
      C  C_805    15.39366   22.96194    1.82198
      C  C_806    17.81551   10.15369    1.79891
      C  C_807    22.99097   17.78555    1.82198
      C  C_808    10.15185   15.39645    1.77585
      H  H_809    18.74444   23.29376    1.40684
      H  H_810    23.32273   14.43417    1.40684
      H  H_811     9.82010   18.78101    1.40684
      H  H_812    18.74444    9.85505   21.65616
      H  H_813    14.43156   23.32694   21.67922
      H  H_814     9.82009   14.43417   21.65616
      H  H_815    23.32273   18.74783   21.65616
      H  H_816    18.74444   23.32694   21.67922
      H  H_817    14.43156    9.82187   21.65616
      H  H_818     9.85327   18.74783   21.63309
      H  H_819    23.32273   14.43417   21.65616
      H  H_820    14.43156   23.29376    1.40684
      H  H_821    18.77761    9.85505    1.40684
      H  H_822    23.32273   18.74783    1.40684
      H  H_823     9.85327   14.43417    1.36072
      C  C_824    16.58800   23.39331    1.26846
      C  C_825    23.42225   16.59100    1.24540
      C  C_826     9.72057   16.62418    1.22234
      C  C_827    16.58800    9.72232   21.79453
      C  C_828    16.58800   23.42649   21.81760
      C  C_829     9.72057   16.59100   21.79453
      C  C_830    23.42225   16.59100   21.81760
      C  C_831    16.58800   24.28922    0.02306
      C  C_832    24.28483   16.59100    0.00000
      C  C_833     8.85799   16.62418   -0.02306
      H  H_834    17.48375   24.91968    0.02306
      H  H_835    24.94835   15.69509    0.00000
      H  H_836     8.22765   17.48691   -0.02306
      H  H_837    17.48375    8.22914   -0.02306
      H  H_838    15.72542   24.91968    0.02306
      H  H_839     8.19447   15.72827   -0.02306
      H  H_840    24.94835   17.48691    0.00000
