data_crystal
 
_cell_length_a    41.87000
_cell_length_b    41.86015
_cell_length_c    35.13000
_cell_angle_alpha 90.00000
_cell_angle_beta  90.00000
_cell_angle_gamma 119.99988
 
_symmetry_space_group_name_Hall 'P 1'
_symmetry_space_group_name_H-M  'P 1'
 
loop_
_symmetry_equiv_pos_as_xyz
 'x,y,z' 
 
loop_
_atom_site_label
_atom_site_type_symbol
_atom_site_fract_x
_atom_site_fract_y
_atom_site_fract_z
_atom_site_charge
Zn         Zn      0.40857   0.47845   0.37455   1.30178
Zn         Zn      0.59122   0.52183   0.12455   1.30040
Zn         Zn      0.52172   0.93047   0.37454   1.30132
Zn         Zn      0.47833   0.06969   0.12456   1.30067
Zn         Zn      0.06955   0.59131   0.37452   1.30194
Zn         Zn      0.92988   0.40852   0.12453   1.30253
Zn         Zn      0.37189   0.40210   0.32985   1.29068
Zn         Zn      0.62791   0.59799   0.16992   1.28995
Zn         Zn      0.59775   0.96980   0.32984   1.28906
Zn         Zn      0.40205   0.03014   0.17011   1.28510
Zn         Zn      0.03007   0.62812   0.32988   1.28325
Zn         Zn      0.96968   0.37195   0.17002   1.28908
Zn         Zn      0.62799   0.59803   0.07991   1.29092
Zn         Zn      0.37188   0.40222   0.42004   1.29073
Zn         Zn      0.40204   0.03028   0.07996   1.29326
Zn         Zn      0.59776   0.96983   0.42001   1.28847
Zn         Zn      0.96980   0.37191   0.07985   1.28568
Zn         Zn      0.03010   0.62816   0.41996   1.28895
Zn         Zn      0.32179   0.42693   0.37439   1.26739
Zn         Zn      0.67842   0.57349   0.12428   1.26866
Zn         Zn      0.57299   0.89486   0.37444   1.26769
Zn         Zn      0.42658   0.10501   0.12568   1.26726
Zn         Zn      0.10500   0.67841   0.37420   1.26763
Zn         Zn      0.89477   0.32194   0.12431   1.26793
O          O       0.36841   0.42731   0.37487  -1.56497
O          O       0.63160   0.57283   0.12489  -1.56342
O          O       0.57272   0.94114   0.37490  -1.56314
O          O       0.42723   0.05887   0.12507  -1.56215
O          O       0.05880   0.63165   0.37487  -1.56092
O          O       0.94109   0.36850   0.12485  -1.56414
O          O       0.44094   0.48939   0.33081  -0.60650
O          O       0.55910   0.51073   0.16890  -0.60875
O          O       0.51060   0.95163   0.33075  -0.60729
O          O       0.48930   0.04845   0.16886  -0.60833
O          O       0.04835   0.55902   0.33068  -0.60904
O          O       0.95146   0.44082   0.16881  -0.60876
O          O       0.55899   0.51066   0.08071  -0.60706
O          O       0.44082   0.48933   0.41885  -0.60998
O          O       0.48931   0.04838   0.08074  -0.60684
O          O       0.51067   0.95158   0.41886  -0.60831
O          O       0.95153   0.44096   0.08082  -0.60914
O          O       0.04838   0.55914   0.41889  -0.60798
O          O       0.29355   0.40623   0.32802  -0.60049
O          O       0.70654   0.59538   0.17078  -0.60174
O          O       0.59383   0.88742   0.32817  -0.60118
O          O       0.40621   0.11269   0.17215  -0.60579
O          O       0.11272   0.70647   0.32759  -0.60416
O          O       0.88750   0.29369   0.17100  -0.60052
O          O       0.70642   0.59377   0.07767  -0.60241
O          O       0.29363   0.40613   0.42114  -0.60263
O          O       0.40607   0.11248   0.07881  -0.60197
O          O       0.59389   0.88757   0.42111  -0.60266
O          O       0.88730   0.29361   0.07793  -0.60190
O          O       0.11243   0.70640   0.42104  -0.60083
O          O       0.32993   0.38894   0.29590  -0.60061
O          O       0.66954   0.61114   0.20400  -0.60145
O          O       0.61107   0.94111   0.29603  -0.60208
O          O       0.38890   0.05893   0.20411  -0.60002
O          O       0.05888   0.67002   0.29585  -0.59760
O          O       0.94092   0.32992   0.20378  -0.60088
O          O       0.66991   0.61113   0.04593  -0.60091
O          O       0.32991   0.38899   0.45388  -0.60211
O          O       0.38896   0.05907   0.04607  -0.60585
O          O       0.61105   0.94110   0.45369  -0.60125
O          O       0.94101   0.32995   0.04589  -0.59858
O          O       0.05901   0.67007   0.45377  -0.60179
O          O       0.37164   0.35642   0.34159  -0.59035
O          O       0.62828   0.64360   0.15671  -0.59117
O          O       0.64249   0.01570   0.34169  -0.59203
O          O       0.35629   0.98470   0.15831  -0.58756
O          O       0.98457   0.62841   0.34164  -0.58838
O          O       0.01488   0.37206   0.15665  -0.59263
O          O       0.62837   0.64386   0.09169  -0.59129
O          O       0.37175   0.35701   0.40659  -0.59198
O          O       0.35674   0.98506   0.09328  -0.59659
O          O       0.64235   0.01559   0.40664  -0.59103
O          O       0.01520   0.37166   0.09165  -0.58985
O          O       0.98473   0.62838   0.40665  -0.59488
O          O       0.41645   0.43390   0.30022  -0.61763
O          O       0.58351   0.56617   0.19962  -0.61687
O          O       0.56605   0.98258   0.30014  -0.61441
O          O       0.43389   0.01746   0.19965  -0.61356
O          O       0.01738   0.58359   0.30022  -0.61565
O          O       0.98251   0.41647   0.19964  -0.61676
O          O       0.58352   0.56617   0.05020  -0.61843
O          O       0.41641   0.43390   0.44964  -0.61800
O          O       0.43377   0.01741   0.05026  -0.61528
O          O       0.56604   0.98256   0.44971  -0.61539
O          O       0.98255   0.41650   0.05021  -0.61714
O          O       0.01740   0.58363   0.44957  -0.61642
O          O       0.32974   0.47722   0.37493  -0.57148
O          O       0.67032   0.52315   0.12498  -0.57120
O          O       0.52279   0.85257   0.37499  -0.56996
O          O       0.47691   0.14728   0.12501  -0.56693
O          O       0.14725   0.67035   0.37495  -0.56879
O          O       0.85248   0.32989   0.12493  -0.57052
O          O       0.39225   0.51449   0.37498  -0.59489
O          O       0.60772   0.48600   0.12499  -0.59374
O          O       0.48582   0.87817   0.37492  -0.59423
O          O       0.51417   0.12198   0.12499  -0.59374
O          O       0.12184   0.60776   0.37491  -0.59471
O          O       0.87741   0.39244   0.12498  -0.59472
C          C       0.44042   0.46801   0.30453   0.51086
C          C       0.55947   0.53210   0.19509   0.50819
C          C       0.53201   0.97259   0.30453   0.50857
C          C       0.46798   0.02758   0.19514   0.50785
C          C       0.02737   0.55952   0.30451   0.50965
C          C       0.97237   0.44043   0.19508   0.51010
C          C       0.55943   0.53211   0.05456   0.51011
C          C       0.44037   0.46802   0.44515   0.50840
C          C       0.46786   0.02749   0.05452   0.50897
C          C       0.53198   0.97253   0.44512   0.50947
C          C       0.97245   0.44049   0.05457   0.51213
C          C       0.02742   0.55958   0.44508   0.50927
C          C       0.47100   0.48460   0.27609   0.16470
C          C       0.52866   0.51561   0.22330   0.17145
C          C       0.51552   0.98682   0.27626   0.16602
C          C       0.48453   0.01347   0.22349   0.16758
C          C       0.01314   0.52883   0.27619   0.16662
C          C       0.98648   0.47115   0.22340   0.16449
C          C       0.52869   0.51566   0.02630   0.16833
C          C       0.47101   0.48462   0.47353   0.17314
C          C       0.48436   0.01340   0.02609   0.16644
C          C       0.51541   0.98677   0.47332   0.16637
C          C       0.98653   0.47115   0.02619   0.16339
C          C       0.01315   0.52882   0.47338   0.16646
C          C       0.47223   0.46306   0.24613  -0.20951
C          C       0.52735   0.53719   0.25318  -0.21425
C          C       0.53707   0.00957   0.24629  -0.21139
C          C       0.46300   0.99075   0.25349  -0.21251
C          C       0.99019   0.52747   0.24636  -0.21424
C          C       0.00940   0.47248   0.25327  -0.21215
C          C       0.52742   0.53720   0.49636  -0.21139
C          C       0.47223   0.46311   0.00354  -0.21424
C          C       0.46288   0.99075   0.49603  -0.21161
C          C       0.53691   0.00949   0.00334  -0.21135
C          C       0.00936   0.47244   0.49627  -0.21186
C          C       0.99025   0.52749   0.00325  -0.21391
C          C       0.49863   0.52175   0.27947  -0.21655
C          C       0.50094   0.47850   0.21984  -0.22197
C          C       0.47843   0.97746   0.27977  -0.21703
C          C       0.52163   0.02285   0.22001  -0.21809
C          C       0.02268   0.50121   0.27954  -0.21919
C          C       0.97691   0.49874   0.22007  -0.21663
C          C       0.50095   0.47856   0.02981  -0.21840
C          C       0.49870   0.52175   0.47008  -0.22281
C          C       0.52145   0.02275   0.02960  -0.21759
C          C       0.47834   0.97749   0.46974  -0.21685
C          C       0.97699   0.49877   0.02954  -0.21640
C          C       0.02262   0.50115   0.46997  -0.21782
C          C       0.30280   0.39477   0.29851   0.49142
C          C       0.69701   0.60591   0.20076   0.49152
C          C       0.60519   0.90813   0.29866   0.49127
C          C       0.39465   0.09187   0.20157   0.48781
C          C       0.09182   0.69718   0.29823   0.48691
C          C       0.90790   0.30285   0.20073   0.49251
C          C       0.69706   0.60534   0.04834   0.48807
C          C       0.30276   0.39482   0.45086   0.48984
C          C       0.39478   0.09205   0.04909   0.49620
C          C       0.60516   0.90810   0.45076   0.48715
C          C       0.90800   0.30290   0.04841   0.48618
C          C       0.09195   0.69726   0.45071   0.49290
C          C       0.28004   0.38812   0.26370   0.19021
C          C       0.71968   0.61231   0.23560   0.19043
C          C       0.61172   0.89210   0.26376   0.19059
C          C       0.38780   0.10785   0.23633   0.19955
C          C       0.10772   0.71994   0.26338   0.19796
C          C       0.89159   0.28015   0.23557   0.18748
C          C       0.71971   0.61215   0.01346   0.19722
C          C       0.27996   0.38821   0.48568   0.19540
C          C       0.38817   0.10824   0.01427   0.19008
C          C       0.61165   0.89201   0.48568   0.20016
C          C       0.89182   0.28027   0.01354   0.19848
C          C       0.10809   0.72014   0.48549   0.18953
C          C       0.25402   0.39989   0.26203  -0.26025
C          C       0.74562   0.60045   0.23735  -0.25740
C          C       0.59987   0.85431   0.26199  -0.25736
C          C       0.39948   0.14563   0.23799  -0.26128
C          C       0.14548   0.74605   0.26166  -0.26028
C          C       0.85379   0.25420   0.23730  -0.25589
C          C       0.74576   0.60045   0.01172  -0.26248
C          C       0.25392   0.39996   0.48744  -0.26062
C          C       0.40004   0.14605   0.01243  -0.25977
C          C       0.59984   0.85422   0.48752  -0.26423
C          C       0.85402   0.25429   0.01188  -0.26232
C          C       0.14585   0.74622   0.48726  -0.25835
C          C       0.23475   0.39615   0.22845  -0.13575
C          C       0.76477   0.60412   0.27100  -0.13612
C          C       0.60354   0.83888   0.22833  -0.13645
C          C       0.39565   0.16110   0.27155  -0.13636
C          C       0.16091   0.76536   0.22809  -0.13543
C          C       0.83828   0.23503   0.27094  -0.13677
C          C       0.76496   0.60425   0.47812  -0.13321
C          C       0.23471   0.39621   0.02107  -0.13571
C          C       0.39624   0.16149   0.47880  -0.13531
C          C       0.60352   0.83883   0.02122  -0.13129
C          C       0.83845   0.23507   0.47829  -0.13268
C          C       0.16126   0.76549   0.02087  -0.13573
C          C       0.24044   0.38002   0.19586   0.08178
C          C       0.75909   0.62031   0.30355   0.07919
C          C       0.61970   0.86082   0.19582   0.08001
C          C       0.37952   0.13924   0.30412   0.07904
C          C       0.13901   0.75962   0.19556   0.07760
C          C       0.86010   0.24073   0.30353   0.07988
C          C       0.75919   0.62041   0.44561   0.07852
C          C       0.24042   0.38009   0.05366   0.08118
C          C       0.37993   0.13959   0.44630   0.08233
C          C       0.61964   0.86077   0.05373   0.07609
C          C       0.86022   0.24076   0.44567   0.07637
C          C       0.13937   0.75975   0.05341   0.08122
C          C       0.26571   0.36717   0.19837  -0.15624
C          C       0.73380   0.63314   0.30100  -0.15550
C          C       0.63253   0.89893   0.19840  -0.15586
C          C       0.36670   0.10112   0.30160  -0.15354
C          C       0.10091   0.73429   0.19813  -0.15260
C          C       0.89822   0.26600   0.30098  -0.15661
C          C       0.73385   0.63319   0.44819  -0.15535
C          C       0.26572   0.36727   0.05107  -0.15676
C          C       0.36699   0.10145   0.44896  -0.15671
C          C       0.63244   0.89888   0.05110  -0.15345
C          C       0.89835   0.26606   0.44814  -0.15340
C          C       0.10126   0.73444   0.05079  -0.15786
C          C       0.28555   0.37149   0.23161  -0.25113
C          C       0.71404   0.62883   0.26771  -0.25183
C          C       0.62825   0.91436   0.23172  -0.25150
C          C       0.37112   0.08565   0.26837  -0.25783
C          C       0.08549   0.71440   0.23138  -0.25707
C          C       0.91372   0.28573   0.26769  -0.24932
C          C       0.71406   0.62879   0.48148  -0.25399
C          C       0.28550   0.37159   0.01778  -0.25349
C          C       0.37138   0.08602   0.48224  -0.25160
C          C       0.62817   0.91426   0.01774  -0.25599
C          C       0.91391   0.28585   0.48140  -0.25523
C          C       0.08586   0.71460   0.01752  -0.24943
C          C       0.22134   0.37751   0.15960   0.06784
C          C       0.77821   0.62287   0.33980   0.06945
C          C       0.62224   0.84428   0.15957   0.06685
C          C       0.37704   0.15584   0.34037   0.06939
C          C       0.15558   0.77875   0.15932   0.06988
C          C       0.84356   0.22164   0.33981   0.06786
C          C       0.77828   0.62295   0.40937   0.06853
C          C       0.22135   0.37755   0.08995   0.06861
C          C       0.37729   0.15606   0.41000   0.06621
C          C       0.62221   0.84427   0.09001   0.06828
C          C       0.84360   0.22163   0.40943   0.06879
C          C       0.15582   0.77882   0.08971   0.06778
C          C       0.23859   0.37928   0.12477  -0.21003
C          C       0.76098   0.62116   0.37460  -0.20981
C          C       0.62047   0.85980   0.12480  -0.20805
C          C       0.37890   0.14043   0.37521  -0.20888
C          C       0.14020   0.76152   0.12448  -0.20966
C          C       0.85906   0.23891   0.37461  -0.20852
C          C       0.18642   0.37453   0.15909  -0.22503
C          C       0.81313   0.62586   0.34032  -0.22421
C          C       0.62522   0.81234   0.15906  -0.22122
C          C       0.37404   0.18776   0.34085  -0.22468
C          C       0.18748   0.81368   0.15888  -0.22365
C          C       0.81166   0.18670   0.34036  -0.22158
C          C       0.81318   0.62591   0.40884  -0.22415
C          C       0.18643   0.37455   0.09055  -0.22489
C          C       0.37433   0.18801   0.40937  -0.22328
C          C       0.62519   0.81234   0.09056  -0.22283
C          C       0.81169   0.18669   0.40890  -0.22244
C          C       0.18775   0.81375   0.09035  -0.22335
C          C       0.16850   0.37347   0.12482   0.07243
C          C       0.83110   0.62695   0.37457   0.07054
C          C       0.62626   0.79547   0.12481   0.06781
C          C       0.37310   0.20473   0.37506   0.07066
C          C       0.20445   0.83164   0.12467   0.06946
C          C       0.79485   0.16874   0.37463   0.06647
C          C       0.13222   0.37185   0.12480   0.11984
C          C       0.86739   0.62853   0.37452   0.12055
C          C       0.62785   0.76078   0.12476   0.12291
C          C       0.37148   0.23940   0.37491   0.12151
C          C       0.23912   0.86793   0.12487   0.12233
C          C       0.76019   0.13242   0.37457   0.12469
C          C       0.11454   0.37154   0.09050  -0.19470
C          C       0.88521   0.62882   0.40872  -0.19540
C          C       0.62818   0.74343   0.09044  -0.19627
C          C       0.37115   0.25695   0.40908  -0.19613
C          C       0.25662   0.88592   0.09073  -0.19651
C          C       0.74268   0.11460   0.40877  -0.19682
C          C       0.88508   0.62883   0.34023  -0.19371
C          C       0.11441   0.37156   0.15901  -0.19574
C          C       0.37119   0.25672   0.34055  -0.19628
C          C       0.62816   0.74325   0.15895  -0.19559
C          C       0.74280   0.11475   0.34027  -0.19661
C          C       0.25648   0.88541   0.15925  -0.19508
C          C       0.08121   0.37132   0.09029  -0.24795
C          C       0.91856   0.62901   0.40873  -0.24820
C          C       0.62850   0.71035   0.09019  -0.24517
C          C       0.37097   0.29011   0.40903  -0.24269
C          C       0.28980   0.91922   0.09085  -0.24523
C          C       0.70943   0.08135   0.40879  -0.24552
C          C       0.91842   0.62902   0.34002  -0.24983
C          C       0.08107   0.37135   0.15904  -0.24749
C          C       0.37100   0.28986   0.34026  -0.24345
C          C       0.62848   0.71016   0.15893  -0.24565
C          C       0.70956   0.08150   0.34004  -0.24568
C          C       0.28963   0.91872   0.15960  -0.24752
C          C       0.06412   0.37138   0.12460   0.23725
C          C       0.93555   0.62896   0.37433   0.23813
C          C       0.62854   0.69322   0.12449   0.23225
C          C       0.37106   0.30706   0.37456   0.22882
C          C       0.30681   0.93595   0.12535   0.23405
C          C       0.69233   0.06449   0.37437   0.23270
C          C       0.37149   0.34280   0.37427   0.43647
C          C       0.62840   0.65758   0.12429   0.43511
C          C       0.65643   0.02930   0.37422   0.43545
C          C       0.34260   0.97122   0.12566   0.43527
C          C       0.97093   0.62858   0.37421   0.43318
C          C       0.02875   0.37170   0.12432   0.43271
C          C       0.35917   0.50866   0.37490   0.45524
C          C       0.64077   0.49178   0.12497   0.45249
C          C       0.49146   0.85080   0.37491   0.45442
C          C       0.50831   0.14923   0.12496   0.45218
C          C       0.14912   0.64084   0.37494   0.45326
C          C       0.85031   0.35925   0.12496   0.45432
C          C       0.35428   0.54148   0.37478   0.17986
C          C       0.64550   0.45891   0.12492   0.18336
C          C       0.45855   0.81320   0.37478   0.17868
C          C       0.54107   0.18693   0.12487   0.17903
C          C       0.18677   0.64569   0.37497   0.17963
C          C       0.81260   0.35430   0.12496   0.18081
C          C       0.68102   0.46351   0.12342  -0.22131
C          C       0.46315   0.78227   0.37610  -0.22018
C          C       0.53627   0.21775   0.12361  -0.21846
C          C       0.21760   0.68127   0.37654  -0.22059
C          C       0.78171   0.31875   0.12355  -0.22127
C          C       0.31871   0.53679   0.37326  -0.22159
C          C       0.68582   0.43299   0.12326  -0.22447
C          C       0.43265   0.74693   0.37600  -0.21839
C          C       0.56667   0.25317   0.12349  -0.22698
C          C       0.25298   0.68622   0.37674  -0.22121
C          C       0.74635   0.31390   0.12341  -0.22367
C          C       0.31378   0.56724   0.37301  -0.21574
C          C       0.34398   0.60352   0.37463   0.15163
C          C       0.65552   0.39677   0.12487   0.16790
C          C       0.39643   0.74099   0.37426   0.15882
C          C       0.60296   0.25927   0.12486   0.17031
C          C       0.25903   0.65601   0.37506   0.15919
C          C       0.74036   0.34416   0.12492   0.16798
C          C       0.37952   0.60767   0.37624  -0.22307
C          C       0.62001   0.39272   0.12645  -0.23197
C          C       0.60719   0.22791   0.12620  -0.23441
C          C       0.39238   0.77247   0.37284  -0.23023
C          C       0.77180   0.37969   0.12638  -0.23271
C          C       0.22765   0.62045   0.37322  -0.22579
C          C       0.38471   0.57732   0.37616  -0.21034
C          C       0.61496   0.42315   0.12635  -0.21018
C          C       0.57690   0.19235   0.12610  -0.20660
C          C       0.42280   0.80796   0.37322  -0.20769
C          C       0.80729   0.38479   0.12629  -0.20872
C          C       0.19212   0.61525   0.37334  -0.20884
C          C       0.33845   0.63591   0.37462   0.05323
C          C       0.66097   0.36434   0.12490   0.02851
C          C       0.36405   0.70309   0.37420   0.04523
C          C       0.63531   0.29719   0.12489   0.02727
C          C       0.29692   0.66154   0.37500   0.04391
C          C       0.70247   0.33869   0.12493   0.02844
C          C       0.30289   0.63140   0.37544  -0.19286
C          C       0.69653   0.36884   0.12494  -0.16803
C          C       0.36857   0.67203   0.37383  -0.19308
C          C       0.63080   0.32825   0.12485  -0.16742
C          C       0.32795   0.69712   0.37456  -0.17869
C          C       0.67140   0.30314   0.12493  -0.16817
H          H       0.45040   0.43425   0.24405   0.18233
H          H       0.54916   0.56600   0.25526   0.18332
H          H       0.56584   0.01648   0.24419   0.18157
H          H       0.43422   0.98384   0.25561   0.18178
H          H       0.98312   0.54924   0.24435   0.18518
H          H       0.01645   0.45070   0.25527   0.18497
H          H       0.54927   0.56600   0.49424   0.18292
H          H       0.45036   0.43432   0.00566   0.18343
H          H       0.43411   0.98387   0.49385   0.18151
H          H       0.56568   0.01637   0.00550   0.18182
H          H       0.01637   0.45063   0.49422   0.18493
H          H       0.98322   0.54928   0.00528   0.18521
H          H       0.49705   0.53796   0.30299   0.18360
H          H       0.50251   0.46230   0.19630   0.18536
H          H       0.46225   0.95975   0.30334   0.18433
H          H       0.53779   0.04057   0.19643   0.18474
H          H       0.04054   0.50284   0.30301   0.18598
H          H       0.95904   0.49711   0.19662   0.18548
H          H       0.50249   0.46238   0.05337   0.18382
H          H       0.49715   0.53793   0.44651   0.18561
H          H       0.53760   0.04043   0.05321   0.18381
H          H       0.46219   0.95982   0.44612   0.18384
H          H       0.95916   0.49719   0.05301   0.18492
H          H       0.04043   0.50275   0.44647   0.18504
H          H       0.24998   0.41283   0.28717   0.18794
H          H       0.74968   0.58750   0.21224   0.18710
H          H       0.58694   0.83730   0.28709   0.18733
H          H       0.41243   0.16261   0.21287   0.18967
H          H       0.16250   0.75010   0.28676   0.18890
H          H       0.83681   0.25013   0.21217   0.18665
H          H       0.74982   0.58752   0.03684   0.18840
H          H       0.24983   0.41290   0.46234   0.18817
H          H       0.41311   0.16313   0.03746   0.18756
H          H       0.58693   0.83717   0.46243   0.18883
H          H       0.83708   0.25024   0.03705   0.18843
H          H       0.16290   0.75031   0.46218   0.18710
H          H       0.21583   0.40697   0.22701   0.13894
H          H       0.78362   0.59323   0.27255   0.13928
H          H       0.59267   0.80914   0.22673   0.13973
H          H       0.40641   0.19084   0.27302   0.13962
H          H       0.19063   0.78434   0.22660   0.13940
H          H       0.80854   0.21615   0.27242   0.13949
H          H       0.78389   0.59344   0.47655   0.13872
H          H       0.21578   0.40702   0.02255   0.13976
H          H       0.40714   0.19124   0.47723   0.13923
H          H       0.59268   0.80909   0.02285   0.13813
H          H       0.80870   0.21616   0.47687   0.13877
H          H       0.19099   0.78446   0.02241   0.13936
H          H       0.26965   0.35345   0.17386   0.14633
H          H       0.72979   0.64683   0.32550   0.14623
H          H       0.64618   0.91665   0.17390   0.14629
H          H       0.35296   0.08344   0.32609   0.14653
H          H       0.08320   0.73034   0.17366   0.14630
H          H       0.91588   0.26999   0.32550   0.14646
H          H       0.72981   0.64688   0.42371   0.14652
H          H       0.26972   0.35356   0.07556   0.14671
H          H       0.35314   0.08370   0.42453   0.14596
H          H       0.64607   0.91663   0.07559   0.14626
H          H       0.91597   0.27005   0.42358   0.14633
H          H       0.08352   0.73045   0.07525   0.14665
H          H       0.30563   0.36215   0.23336   0.18640
H          H       0.69393   0.63814   0.26595   0.18663
H          H       0.63755   0.94377   0.23359   0.18684
H          H       0.36183   0.05623   0.26659   0.18818
H          H       0.05608   0.69427   0.23317   0.18768
H          H       0.94314   0.30581   0.26595   0.18610
H          H       0.69391   0.63805   0.48333   0.18739
H          H       0.30559   0.36227   0.01604   0.18749
H          H       0.36195   0.05658   0.48404   0.18759
H          H       0.63745   0.94367   0.01588   0.18798
H          H       0.94334   0.30594   0.48311   0.18756
H          H       0.05646   0.69447   0.01573   0.18646
H          H       0.26663   0.38375   0.12479   0.14390
H          H       0.73294   0.61669   0.37462   0.14390
H          H       0.61600   0.88337   0.12481   0.14389
H          H       0.38338   0.11686   0.37522   0.14399
H          H       0.11666   0.73346   0.12442   0.14374
H          H       0.88260   0.26697   0.37461   0.14355
H          H       0.17303   0.37273   0.18629   0.13899
H          H       0.82650   0.62765   0.31310   0.13830
H          H       0.62703   0.80077   0.18628   0.13756
H          H       0.37213   0.19925   0.31361   0.13925
H          H       0.19897   0.82706   0.18612   0.13840
H          H       0.80007   0.17330   0.31316   0.13795
H          H       0.82656   0.62769   0.43605   0.13909
H          H       0.17303   0.37277   0.06335   0.13860
H          H       0.37267   0.19975   0.43655   0.13844
H          H       0.62700   0.80077   0.06335   0.13910
H          H       0.80009   0.17329   0.43611   0.13884
H          H       0.19948   0.82716   0.06319   0.13849
H          H       0.12702   0.37166   0.06320   0.16159
H          H       0.87283   0.62871   0.43610   0.16153
H          H       0.62799   0.75579   0.06316   0.16181
H          H       0.37123   0.24468   0.43646   0.16191
H          H       0.24431   0.87371   0.06333   0.16189
H          H       0.75502   0.12693   0.43614   0.16191
H          H       0.87259   0.62872   0.31293   0.16161
H          H       0.12681   0.37168   0.18638   0.16183
H          H       0.37132   0.24431   0.31328   0.16169
H          H       0.62797   0.75548   0.18632   0.16205
H          H       0.75523   0.12719   0.31297   0.16206
H          H       0.24409   0.87277   0.18649   0.16205
H          H       0.06791   0.37126   0.06352   0.18613
H          H       0.93192   0.62906   0.43545   0.18636
H          H       0.62857   0.69715   0.06341   0.18558
H          H       0.37092   0.30350   0.43568   0.18433
H          H       0.30317   0.93276   0.06421   0.18568
H          H       0.69610   0.06797   0.43550   0.18581
H          H       0.93167   0.62906   0.31322   0.18675
H          H       0.06768   0.37131   0.18574   0.18619
H          H       0.37096   0.30306   0.31347   0.18562
H          H       0.62854   0.69683   0.18564   0.18568
H          H       0.69632   0.06823   0.31327   0.18594
H          H       0.30287   0.93186   0.18643   0.18633
H          H       0.70464   0.49147   0.12229   0.17592
H          H       0.49111   0.78661   0.37731   0.17543
H          H       0.50826   0.21328   0.12266   0.17431
H          H       0.21315   0.70483   0.37769   0.17518
H          H       0.78605   0.29513   0.12249   0.17578
H          H       0.29512   0.50880   0.37216   0.17619
H          H       0.71387   0.43769   0.12179   0.17847
H          H       0.43736   0.72358   0.37744   0.17399
H          H       0.56181   0.27645   0.12226   0.17951
H          H       0.27626   0.71432   0.37831   0.17747
H          H       0.72302   0.28581   0.12202   0.17807
H          H       0.28569   0.56245   0.37141   0.17321
H          H       0.40384   0.63514   0.37772   0.17305
H          H       0.59562   0.36530   0.12787   0.17843
H          H       0.63467   0.23109   0.12742   0.17864
H          H       0.36496   0.76942   0.37134   0.17780
H          H       0.76872   0.40406   0.12771   0.17873
H          H       0.23082   0.59616   0.37151   0.17357
H          H       0.41238   0.58088   0.37729   0.17713
H          H       0.58735   0.41974   0.12747   0.17672
H          H       0.58048   0.16826   0.12706   0.17607
H          H       0.41934   0.83214   0.37222   0.17613
H          H       0.83143   0.41244   0.12733   0.17652
H          H       0.16800   0.58760   0.37205   0.17678
H          H       0.27914   0.60361   0.37661   0.10385
H          H       0.72030   0.39664   0.12499   0.09112
H          H       0.39635   0.67606   0.37278   0.10362
H          H       0.60302   0.32425   0.12479   0.09079
H          H       0.32392   0.72089   0.37450   0.09337
H          H       0.67542   0.27936   0.12498   0.09184
Zn         Zn      0.40857   0.47845   0.87455   1.30178
Zn         Zn      0.59122   0.52183   0.62455   1.30040
Zn         Zn      0.52172   0.93047   0.87454   1.30132
Zn         Zn      0.47833   0.06969   0.62456   1.30067
Zn         Zn      0.06955   0.59131   0.87452   1.30194
Zn         Zn      0.92988   0.40852   0.62453   1.30253
Zn         Zn      0.37189   0.40210   0.82985   1.29068
Zn         Zn      0.62791   0.59799   0.66992   1.28995
Zn         Zn      0.59775   0.96980   0.82984   1.28906
Zn         Zn      0.40205   0.03014   0.67011   1.28510
Zn         Zn      0.03007   0.62812   0.82988   1.28325
Zn         Zn      0.96968   0.37195   0.67002   1.28908
Zn         Zn      0.62799   0.59803   0.57991   1.29092
Zn         Zn      0.37188   0.40222   0.92004   1.29073
Zn         Zn      0.40204   0.03028   0.57996   1.29326
Zn         Zn      0.59776   0.96983   0.92001   1.28847
Zn         Zn      0.96980   0.37191   0.57986   1.28568
Zn         Zn      0.03010   0.62816   0.91996   1.28895
Zn         Zn      0.32179   0.42693   0.87439   1.26739
Zn         Zn      0.67842   0.57349   0.62428   1.26866
Zn         Zn      0.57299   0.89486   0.87444   1.26769
Zn         Zn      0.42658   0.10501   0.62568   1.26726
Zn         Zn      0.10500   0.67841   0.87420   1.26763
Zn         Zn      0.89477   0.32194   0.62431   1.26793
O          O       0.36841   0.42731   0.87486  -1.56497
O          O       0.63160   0.57283   0.62489  -1.56342
O          O       0.57272   0.94114   0.87490  -1.56314
O          O       0.42723   0.05887   0.62506  -1.56215
O          O       0.05880   0.63165   0.87487  -1.56092
O          O       0.94109   0.36850   0.62485  -1.56414
O          O       0.44094   0.48939   0.83081  -0.60650
O          O       0.55910   0.51073   0.66890  -0.60875
O          O       0.51060   0.95163   0.83074  -0.60729
O          O       0.48930   0.04845   0.66886  -0.60833
O          O       0.04835   0.55902   0.83068  -0.60904
O          O       0.95146   0.44082   0.66881  -0.60876
O          O       0.55899   0.51066   0.58071  -0.60706
O          O       0.44082   0.48933   0.91885  -0.60998
O          O       0.48931   0.04838   0.58074  -0.60684
O          O       0.51067   0.95158   0.91887  -0.60831
O          O       0.95153   0.44096   0.58082  -0.60914
O          O       0.04838   0.55914   0.91889  -0.60798
O          O       0.29355   0.40623   0.82801  -0.60049
O          O       0.70654   0.59538   0.67078  -0.60174
O          O       0.59383   0.88742   0.82817  -0.60118
O          O       0.40621   0.11269   0.67215  -0.60579
O          O       0.11272   0.70647   0.82759  -0.60416
O          O       0.88750   0.29369   0.67100  -0.60052
O          O       0.70642   0.59377   0.57767  -0.60241
O          O       0.29363   0.40613   0.92114  -0.60263
O          O       0.40607   0.11248   0.57881  -0.60197
O          O       0.59389   0.88757   0.92111  -0.60266
O          O       0.88730   0.29361   0.57793  -0.60190
O          O       0.11243   0.70640   0.92104  -0.60083
O          O       0.32993   0.38894   0.79590  -0.60061
O          O       0.66954   0.61114   0.70399  -0.60145
O          O       0.61107   0.94111   0.79603  -0.60208
O          O       0.38890   0.05893   0.70411  -0.60002
O          O       0.05888   0.67002   0.79585  -0.59760
O          O       0.94092   0.32992   0.70377  -0.60088
O          O       0.66991   0.61113   0.54592  -0.60091
O          O       0.32991   0.38899   0.95388  -0.60211
O          O       0.38896   0.05907   0.54607  -0.60585
O          O       0.61105   0.94110   0.95369  -0.60125
O          O       0.94101   0.32995   0.54589  -0.59858
O          O       0.05901   0.67007   0.95377  -0.60179
O          O       0.37164   0.35642   0.84159  -0.59035
O          O       0.62828   0.64360   0.65671  -0.59117
O          O       0.64249   0.01570   0.84169  -0.59203
O          O       0.35629   0.98470   0.65831  -0.58756
O          O       0.98457   0.62841   0.84164  -0.58838
O          O       0.01488   0.37206   0.65665  -0.59263
O          O       0.62837   0.64386   0.59169  -0.59129
O          O       0.37175   0.35701   0.90660  -0.59198
O          O       0.35674   0.98506   0.59328  -0.59659
O          O       0.64235   0.01559   0.90665  -0.59103
O          O       0.01520   0.37166   0.59164  -0.58985
O          O       0.98473   0.62838   0.90665  -0.59488
O          O       0.41645   0.43390   0.80022  -0.61763
O          O       0.58351   0.56617   0.69962  -0.61687
O          O       0.56605   0.98258   0.80014  -0.61441
O          O       0.43389   0.01746   0.69966  -0.61356
O          O       0.01738   0.58359   0.80022  -0.61565
O          O       0.98251   0.41647   0.69964  -0.61676
O          O       0.58352   0.56617   0.55021  -0.61843
O          O       0.41641   0.43390   0.94964  -0.61800
O          O       0.43377   0.01741   0.55026  -0.61528
O          O       0.56604   0.98256   0.94971  -0.61539
O          O       0.98255   0.41650   0.55021  -0.61714
O          O       0.01740   0.58363   0.94957  -0.61642
O          O       0.32974   0.47722   0.87493  -0.57148
O          O       0.67032   0.52315   0.62498  -0.57120
O          O       0.52279   0.85257   0.87499  -0.56996
O          O       0.47691   0.14728   0.62500  -0.56693
O          O       0.14725   0.67035   0.87495  -0.56879
O          O       0.85248   0.32989   0.62494  -0.57052
O          O       0.39225   0.51449   0.87498  -0.59489
O          O       0.60772   0.48600   0.62499  -0.59374
O          O       0.48582   0.87817   0.87492  -0.59423
O          O       0.51417   0.12198   0.62499  -0.59374
O          O       0.12184   0.60776   0.87491  -0.59471
O          O       0.87741   0.39244   0.62498  -0.59472
C          C       0.44042   0.46801   0.80453   0.51086
C          C       0.55947   0.53210   0.69508   0.50819
C          C       0.53201   0.97259   0.80453   0.50857
C          C       0.46798   0.02758   0.69514   0.50785
C          C       0.02737   0.55952   0.80451   0.50965
C          C       0.97237   0.44043   0.69508   0.51010
C          C       0.55943   0.53211   0.55456   0.51011
C          C       0.44037   0.46802   0.94515   0.50840
C          C       0.46786   0.02749   0.55452   0.50897
C          C       0.53198   0.97253   0.94512   0.50947
C          C       0.97245   0.44049   0.55457   0.51213
C          C       0.02742   0.55958   0.94508   0.50927
C          C       0.47100   0.48460   0.77609   0.16470
C          C       0.52866   0.51561   0.72330   0.17145
C          C       0.51552   0.98682   0.77627   0.16602
C          C       0.48453   0.01347   0.72349   0.16758
C          C       0.01314   0.52883   0.77619   0.16662
C          C       0.98648   0.47115   0.72340   0.16449
C          C       0.52869   0.51566   0.52631   0.16833
C          C       0.47101   0.48462   0.97353   0.17314
C          C       0.48436   0.01340   0.52609   0.16644
C          C       0.51541   0.98677   0.97333   0.16637
C          C       0.98653   0.47115   0.52619   0.16339
C          C       0.01315   0.52882   0.97337   0.16646
C          C       0.47223   0.46306   0.74613  -0.20951
C          C       0.52735   0.53719   0.75318  -0.21425
C          C       0.53707   0.00957   0.74629  -0.21139
C          C       0.46300   0.99075   0.75349  -0.21251
C          C       0.99019   0.52747   0.74636  -0.21424
C          C       0.00940   0.47248   0.75326  -0.21215
C          C       0.52742   0.53720   0.99635  -0.21139
C          C       0.47223   0.46311   0.50354  -0.21424
C          C       0.46288   0.99075   0.99602  -0.21161
C          C       0.53691   0.00949   0.50334  -0.21135
C          C       0.00936   0.47244   0.99627  -0.21186
C          C       0.99025   0.52749   0.50324  -0.21391
C          C       0.49863   0.52175   0.77947  -0.21655
C          C       0.50094   0.47850   0.71984  -0.22197
C          C       0.47843   0.97746   0.77977  -0.21703
C          C       0.52163   0.02285   0.72002  -0.21809
C          C       0.02268   0.50121   0.77954  -0.21919
C          C       0.97691   0.49874   0.72007  -0.21663
C          C       0.50095   0.47856   0.52981  -0.21840
C          C       0.49870   0.52175   0.97008  -0.22281
C          C       0.52145   0.02275   0.52960  -0.21759
C          C       0.47834   0.97749   0.96974  -0.21685
C          C       0.97699   0.49877   0.52954  -0.21640
C          C       0.02262   0.50115   0.96997  -0.21782
C          C       0.30280   0.39477   0.79851   0.49142
C          C       0.69701   0.60591   0.70076   0.49152
C          C       0.60519   0.90813   0.79866   0.49127
C          C       0.39465   0.09187   0.70157   0.48781
C          C       0.09182   0.69718   0.79823   0.48691
C          C       0.90790   0.30285   0.70073   0.49251
C          C       0.69706   0.60534   0.54834   0.48807
C          C       0.30276   0.39482   0.95085   0.48984
C          C       0.39478   0.09205   0.54909   0.49620
C          C       0.60516   0.90810   0.95076   0.48715
C          C       0.90800   0.30290   0.54841   0.48618
C          C       0.09195   0.69726   0.95071   0.49290
C          C       0.28004   0.38812   0.76370   0.19021
C          C       0.71968   0.61231   0.73560   0.19043
C          C       0.61172   0.89210   0.76376   0.19059
C          C       0.38780   0.10785   0.73633   0.19955
C          C       0.10772   0.71994   0.76338   0.19796
C          C       0.89159   0.28015   0.73557   0.18748
C          C       0.71971   0.61215   0.51347   0.19722
C          C       0.27996   0.38821   0.98568   0.19540
C          C       0.38817   0.10824   0.51426   0.19008
C          C       0.61165   0.89201   0.98568   0.20016
C          C       0.89182   0.28027   0.51354   0.19848
C          C       0.10809   0.72014   0.98549   0.18953
C          C       0.25402   0.39989   0.76203  -0.26025
C          C       0.74562   0.60045   0.73735  -0.25740
C          C       0.59987   0.85431   0.76199  -0.25736
C          C       0.39948   0.14563   0.73799  -0.26128
C          C       0.14548   0.74605   0.76167  -0.26028
C          C       0.85379   0.25420   0.73730  -0.25589
C          C       0.74576   0.60045   0.51172  -0.26248
C          C       0.25392   0.39996   0.98744  -0.26062
C          C       0.40004   0.14605   0.51242  -0.25977
C          C       0.59984   0.85422   0.98753  -0.26423
C          C       0.85402   0.25429   0.51188  -0.26232
C          C       0.14585   0.74622   0.98726  -0.25835
C          C       0.23475   0.39615   0.72846  -0.13575
C          C       0.76477   0.60412   0.77100  -0.13612
C          C       0.60354   0.83888   0.72833  -0.13645
C          C       0.39565   0.16110   0.77155  -0.13636
C          C       0.16091   0.76536   0.72809  -0.13543
C          C       0.83828   0.23503   0.77094  -0.13677
C          C       0.76496   0.60425   0.97812  -0.13321
C          C       0.23471   0.39621   0.52107  -0.13571
C          C       0.39624   0.16149   0.97880  -0.13531
C          C       0.60352   0.83883   0.52122  -0.13129
C          C       0.83845   0.23507   0.97829  -0.13268
C          C       0.16126   0.76549   0.52087  -0.13573
C          C       0.24044   0.38002   0.69586   0.08178
C          C       0.75909   0.62031   0.80355   0.07919
C          C       0.61970   0.86082   0.69583   0.08001
C          C       0.37952   0.13924   0.80412   0.07904
C          C       0.13901   0.75962   0.69556   0.07760
C          C       0.86010   0.24073   0.80353   0.07988
C          C       0.75919   0.62041   0.94561   0.07852
C          C       0.24042   0.38009   0.55366   0.08118
C          C       0.37993   0.13959   0.94630   0.08233
C          C       0.61964   0.86077   0.55373   0.07609
C          C       0.86022   0.24076   0.94567   0.07637
C          C       0.13937   0.75975   0.55341   0.08122
C          C       0.26571   0.36717   0.69837  -0.15624
C          C       0.73380   0.63314   0.80100  -0.15550
C          C       0.63253   0.89893   0.69840  -0.15586
C          C       0.36670   0.10112   0.80159  -0.15354
C          C       0.10091   0.73429   0.69813  -0.15260
C          C       0.89822   0.26600   0.80098  -0.15661
C          C       0.73385   0.63319   0.94819  -0.15535
C          C       0.26572   0.36727   0.55107  -0.15676
C          C       0.36699   0.10145   0.94896  -0.15671
C          C       0.63244   0.89888   0.55110  -0.15345
C          C       0.89835   0.26606   0.94814  -0.15340
C          C       0.10126   0.73444   0.55079  -0.15786
C          C       0.28555   0.37149   0.73161  -0.25113
C          C       0.71404   0.62883   0.76771  -0.25183
C          C       0.62825   0.91436   0.73173  -0.25150
C          C       0.37112   0.08565   0.76837  -0.25783
C          C       0.08549   0.71440   0.73138  -0.25707
C          C       0.91372   0.28573   0.76769  -0.24932
C          C       0.71406   0.62879   0.98148  -0.25399
C          C       0.28550   0.37159   0.51778  -0.25349
C          C       0.37138   0.08602   0.98224  -0.25160
C          C       0.62817   0.91426   0.51774  -0.25599
C          C       0.91391   0.28585   0.98140  -0.25523
C          C       0.08586   0.71460   0.51753  -0.24943
C          C       0.22134   0.37751   0.65960   0.06784
C          C       0.77821   0.62287   0.83979   0.06945
C          C       0.62224   0.84428   0.65958   0.06685
C          C       0.37704   0.15584   0.84037   0.06939
C          C       0.15558   0.77875   0.65932   0.06988
C          C       0.84356   0.22164   0.83981   0.06786
C          C       0.77828   0.62295   0.90938   0.06853
C          C       0.22135   0.37755   0.58996   0.06861
C          C       0.37729   0.15606   0.91000   0.06621
C          C       0.62221   0.84427   0.59001   0.06828
C          C       0.84360   0.22163   0.90943   0.06879
C          C       0.15582   0.77882   0.58971   0.06778
C          C       0.23859   0.37928   0.62477  -0.21003
C          C       0.76098   0.62116   0.87460  -0.20981
C          C       0.62047   0.85980   0.62479  -0.20805
C          C       0.37890   0.14043   0.87521  -0.20888
C          C       0.14020   0.76152   0.62448  -0.20966
C          C       0.85906   0.23891   0.87461  -0.20852
C          C       0.18642   0.37453   0.65909  -0.22503
C          C       0.81313   0.62586   0.84032  -0.22421
C          C       0.62522   0.81234   0.65906  -0.22122
C          C       0.37404   0.18776   0.84084  -0.22468
C          C       0.18748   0.81368   0.65888  -0.22365
C          C       0.81166   0.18670   0.84037  -0.22158
C          C       0.81318   0.62591   0.90883  -0.22415
C          C       0.18643   0.37455   0.59054  -0.22489
C          C       0.37433   0.18801   0.90938  -0.22328
C          C       0.62519   0.81234   0.59056  -0.22283
C          C       0.81169   0.18669   0.90890  -0.22244
C          C       0.18775   0.81375   0.59035  -0.22335
C          C       0.16850   0.37347   0.62482   0.07243
C          C       0.83110   0.62695   0.87458   0.07054
C          C       0.62626   0.79547   0.62481   0.06781
C          C       0.37310   0.20473   0.87506   0.07066
C          C       0.20445   0.83164   0.62468   0.06946
C          C       0.79485   0.16874   0.87463   0.06647
C          C       0.13222   0.37185   0.62480   0.11984
C          C       0.86739   0.62853   0.87452   0.12055
C          C       0.62785   0.76078   0.62475   0.12291
C          C       0.37148   0.23940   0.87491   0.12151
C          C       0.23912   0.86793   0.62487   0.12233
C          C       0.76019   0.13242   0.87458   0.12469
C          C       0.11454   0.37154   0.59049  -0.19470
C          C       0.88521   0.62882   0.90872  -0.19540
C          C       0.62818   0.74343   0.59044  -0.19627
C          C       0.37115   0.25695   0.90907  -0.19613
C          C       0.25662   0.88592   0.59073  -0.19651
C          C       0.74268   0.11460   0.90877  -0.19682
C          C       0.88508   0.62883   0.84023  -0.19371
C          C       0.11441   0.37156   0.65901  -0.19574
C          C       0.37119   0.25672   0.84056  -0.19628
C          C       0.62816   0.74325   0.65895  -0.19559
C          C       0.74280   0.11475   0.84027  -0.19661
C          C       0.25648   0.88541   0.65925  -0.19508
C          C       0.08121   0.37132   0.59028  -0.24795
C          C       0.91856   0.62901   0.90873  -0.24820
C          C       0.62850   0.71035   0.59020  -0.24517
C          C       0.37097   0.29011   0.90903  -0.24269
C          C       0.28980   0.91922   0.59085  -0.24523
C          C       0.70943   0.08135   0.90879  -0.24552
C          C       0.91842   0.62902   0.84001  -0.24983
C          C       0.08107   0.37135   0.65904  -0.24749
C          C       0.37100   0.28986   0.84027  -0.24345
C          C       0.62848   0.71016   0.65893  -0.24565
C          C       0.70956   0.08150   0.84005  -0.24568
C          C       0.28963   0.91872   0.65961  -0.24752
C          C       0.06412   0.37138   0.62460   0.23725
C          C       0.93555   0.62896   0.87433   0.23813
C          C       0.62854   0.69322   0.62449   0.23225
C          C       0.37106   0.30706   0.87456   0.22882
C          C       0.30681   0.93595   0.62535   0.23405
C          C       0.69233   0.06449   0.87436   0.23270
C          C       0.37149   0.34280   0.87427   0.43647
C          C       0.62840   0.65758   0.62428   0.43511
C          C       0.65643   0.02930   0.87422   0.43545
C          C       0.34260   0.97122   0.62566   0.43527
C          C       0.97093   0.62858   0.87421   0.43318
C          C       0.02875   0.37170   0.62432   0.43271
C          C       0.35917   0.50866   0.87490   0.45524
C          C       0.64077   0.49178   0.62497   0.45249
C          C       0.49146   0.85080   0.87491   0.45442
C          C       0.50831   0.14923   0.62496   0.45218
C          C       0.14912   0.64084   0.87494   0.45326
C          C       0.85031   0.35925   0.62495   0.45432
C          C       0.35428   0.54148   0.87479   0.17986
C          C       0.64550   0.45891   0.62493   0.18336
C          C       0.45855   0.81320   0.87478   0.17868
C          C       0.54107   0.18693   0.62487   0.17903
C          C       0.18677   0.64569   0.87497   0.17963
C          C       0.81260   0.35430   0.62495   0.18081
C          C       0.68102   0.46351   0.62342  -0.22131
C          C       0.46315   0.78227   0.87610  -0.22018
C          C       0.53627   0.21775   0.62361  -0.21846
C          C       0.21760   0.68127   0.87654  -0.22059
C          C       0.78171   0.31875   0.62355  -0.22127
C          C       0.31871   0.53679   0.87326  -0.22159
C          C       0.68582   0.43299   0.62327  -0.22447
C          C       0.43265   0.74693   0.87599  -0.21839
C          C       0.56667   0.25317   0.62349  -0.22698
C          C       0.25298   0.68622   0.87674  -0.22121
C          C       0.74635   0.31390   0.62340  -0.22367
C          C       0.31378   0.56724   0.87301  -0.21574
C          C       0.34398   0.60352   0.87463   0.15163
C          C       0.65552   0.39677   0.62487   0.16790
C          C       0.39643   0.74099   0.87426   0.15882
C          C       0.60296   0.25927   0.62486   0.17031
C          C       0.25903   0.65601   0.87506   0.15919
C          C       0.74036   0.34416   0.62491   0.16798
C          C       0.37952   0.60767   0.87624  -0.22307
C          C       0.62001   0.39272   0.62645  -0.23197
C          C       0.60719   0.22791   0.62619  -0.23441
C          C       0.39238   0.77247   0.87284  -0.23023
C          C       0.77180   0.37969   0.62638  -0.23271
C          C       0.22765   0.62045   0.87322  -0.22579
C          C       0.38471   0.57732   0.87616  -0.21034
C          C       0.61496   0.42315   0.62635  -0.21018
C          C       0.57690   0.19235   0.62609  -0.20660
C          C       0.42280   0.80796   0.87322  -0.20769
C          C       0.80729   0.38479   0.62629  -0.20872
C          C       0.19212   0.61525   0.87335  -0.20884
C          C       0.33845   0.63591   0.87462   0.05323
C          C       0.66097   0.36434   0.62490   0.02851
C          C       0.36405   0.70309   0.87420   0.04523
C          C       0.63531   0.29719   0.62489   0.02727
C          C       0.29692   0.66154   0.87501   0.04391
C          C       0.70247   0.33869   0.62493   0.02844
C          C       0.30289   0.63140   0.87543  -0.19286
C          C       0.69653   0.36884   0.62494  -0.16803
C          C       0.36857   0.67203   0.87384  -0.19308
C          C       0.63080   0.32825   0.62486  -0.16742
C          C       0.32795   0.69712   0.87456  -0.17869
C          C       0.67140   0.30314   0.62494  -0.16817
H          H       0.45040   0.43425   0.74405   0.18233
H          H       0.54916   0.56600   0.75526   0.18332
H          H       0.56584   0.01648   0.74418   0.18157
H          H       0.43422   0.98384   0.75561   0.18178
H          H       0.98312   0.54924   0.74435   0.18518
H          H       0.01645   0.45070   0.75528   0.18497
H          H       0.54927   0.56600   0.99424   0.18292
H          H       0.45036   0.43432   0.50567   0.18343
H          H       0.43411   0.98387   0.99384   0.18151
H          H       0.56568   0.01637   0.50550   0.18182
H          H       0.01637   0.45063   0.99423   0.18493
H          H       0.98322   0.54928   0.50528   0.18521
H          H       0.49705   0.53796   0.80298   0.18360
H          H       0.50251   0.46230   0.69630   0.18536
H          H       0.46225   0.95975   0.80334   0.18433
H          H       0.53779   0.04057   0.69644   0.18474
H          H       0.04054   0.50284   0.80300   0.18598
H          H       0.95904   0.49711   0.69661   0.18548
H          H       0.50249   0.46238   0.55337   0.18382
H          H       0.49715   0.53793   0.94651   0.18561
H          H       0.53760   0.04043   0.55321   0.18381
H          H       0.46219   0.95982   0.94612   0.18384
H          H       0.95916   0.49719   0.55302   0.18492
H          H       0.04043   0.50275   0.94647   0.18504
H          H       0.24998   0.41283   0.78717   0.18794
H          H       0.74968   0.58750   0.71224   0.18710
H          H       0.58694   0.83730   0.78709   0.18733
H          H       0.41243   0.16261   0.71287   0.18967
H          H       0.16250   0.75010   0.78676   0.18890
H          H       0.83681   0.25013   0.71217   0.18665
H          H       0.74982   0.58752   0.53684   0.18840
H          H       0.24983   0.41290   0.96234   0.18817
H          H       0.41311   0.16313   0.53746   0.18756
H          H       0.58693   0.83717   0.96244   0.18883
H          H       0.83708   0.25024   0.53705   0.18843
H          H       0.16290   0.75031   0.96218   0.18710
H          H       0.21583   0.40697   0.72701   0.13894
H          H       0.78362   0.59323   0.77255   0.13928
H          H       0.59267   0.80914   0.72672   0.13973
H          H       0.40641   0.19084   0.77302   0.13962
H          H       0.19063   0.78434   0.72660   0.13940
H          H       0.80854   0.21615   0.77242   0.13949
H          H       0.78389   0.59344   0.97655   0.13872
H          H       0.21578   0.40702   0.52255   0.13976
H          H       0.40714   0.19124   0.97723   0.13923
H          H       0.59268   0.80909   0.52285   0.13813
H          H       0.80870   0.21616   0.97687   0.13877
H          H       0.19099   0.78446   0.52241   0.13936
H          H       0.26965   0.35345   0.67386   0.14633
H          H       0.72979   0.64683   0.82550   0.14623
H          H       0.64618   0.91665   0.67390   0.14629
H          H       0.35296   0.08344   0.82609   0.14653
H          H       0.08320   0.73034   0.67365   0.14630
H          H       0.91588   0.26999   0.82550   0.14646
H          H       0.72981   0.64688   0.92371   0.14652
H          H       0.26972   0.35356   0.57556   0.14671
H          H       0.35314   0.08370   0.92453   0.14596
H          H       0.64607   0.91663   0.57559   0.14626
H          H       0.91597   0.27005   0.92358   0.14633
H          H       0.08352   0.73045   0.57525   0.14665
H          H       0.30563   0.36215   0.73335   0.18640
H          H       0.69393   0.63814   0.76595   0.18663
H          H       0.63755   0.94377   0.73359   0.18684
H          H       0.36183   0.05623   0.76659   0.18818
H          H       0.05608   0.69427   0.73317   0.18768
H          H       0.94314   0.30581   0.76595   0.18610
H          H       0.69391   0.63805   0.98334   0.18739
H          H       0.30559   0.36227   0.51604   0.18749
H          H       0.36195   0.05658   0.98404   0.18759
H          H       0.63745   0.94367   0.51588   0.18798
H          H       0.94334   0.30594   0.98311   0.18756
H          H       0.05646   0.69447   0.51574   0.18646
H          H       0.26663   0.38375   0.62479   0.14390
H          H       0.73294   0.61669   0.87462   0.14390
H          H       0.61600   0.88337   0.62482   0.14389
H          H       0.38338   0.11686   0.87522   0.14399
H          H       0.11666   0.73346   0.62442   0.14374
H          H       0.88260   0.26697   0.87461   0.14355
H          H       0.17303   0.37273   0.68629   0.13899
H          H       0.82650   0.62765   0.81310   0.13830
H          H       0.62703   0.80077   0.68628   0.13756
H          H       0.37213   0.19925   0.81361   0.13925
H          H       0.19897   0.82706   0.68612   0.13840
H          H       0.80007   0.17330   0.81315   0.13795
H          H       0.82656   0.62769   0.93605   0.13909
H          H       0.17303   0.37277   0.56335   0.13860
H          H       0.37267   0.19975   0.93655   0.13844
H          H       0.62700   0.80077   0.56335   0.13910
H          H       0.80009   0.17329   0.93611   0.13884
H          H       0.19948   0.82716   0.56318   0.13849
H          H       0.12702   0.37166   0.56320   0.16159
H          H       0.87283   0.62871   0.93610   0.16153
H          H       0.62799   0.75579   0.56315   0.16181
H          H       0.37123   0.24468   0.93646   0.16191
H          H       0.24431   0.87371   0.56333   0.16189
H          H       0.75502   0.12693   0.93614   0.16191
H          H       0.87259   0.62872   0.81293   0.16161
H          H       0.12681   0.37168   0.68638   0.16183
H          H       0.37132   0.24431   0.81328   0.16169
H          H       0.62797   0.75548   0.68632   0.16205
H          H       0.75523   0.12719   0.81297   0.16206
H          H       0.24409   0.87277   0.68649   0.16205
H          H       0.06791   0.37126   0.56353   0.18613
H          H       0.93192   0.62906   0.93545   0.18636
H          H       0.62857   0.69715   0.56341   0.18558
H          H       0.37092   0.30350   0.93568   0.18433
H          H       0.30317   0.93276   0.56421   0.18568
H          H       0.69610   0.06797   0.93550   0.18581
H          H       0.93167   0.62906   0.81322   0.18675
H          H       0.06768   0.37131   0.68574   0.18619
H          H       0.37096   0.30306   0.81347   0.18562
H          H       0.62854   0.69683   0.68564   0.18568
H          H       0.69632   0.06823   0.81327   0.18594
H          H       0.30287   0.93186   0.68643   0.18633
H          H       0.70464   0.49147   0.62230   0.17592
H          H       0.49111   0.78661   0.87731   0.17543
H          H       0.50826   0.21328   0.62266   0.17431
H          H       0.21315   0.70483   0.87769   0.17518
H          H       0.78605   0.29513   0.62249   0.17578
H          H       0.29512   0.50880   0.87216   0.17619
H          H       0.71387   0.43769   0.62178   0.17847
H          H       0.43736   0.72358   0.87744   0.17399
H          H       0.56181   0.27645   0.62226   0.17951
H          H       0.27626   0.71432   0.87830   0.17747
H          H       0.72302   0.28581   0.62202   0.17807
H          H       0.28569   0.56245   0.87141   0.17321
H          H       0.40384   0.63514   0.87772   0.17305
H          H       0.59562   0.36530   0.62787   0.17843
H          H       0.63467   0.23109   0.62742   0.17864
H          H       0.36496   0.76942   0.87134   0.17780
H          H       0.76872   0.40406   0.62770   0.17873
H          H       0.23082   0.59616   0.87151   0.17357
H          H       0.41238   0.58088   0.87729   0.17713
H          H       0.58735   0.41974   0.62747   0.17672
H          H       0.58048   0.16826   0.62706   0.17607
H          H       0.41934   0.83214   0.87222   0.17613
H          H       0.83143   0.41244   0.62733   0.17652
H          H       0.16800   0.58760   0.87205   0.17678
H          H       0.27914   0.60361   0.87661   0.10385
H          H       0.72030   0.39664   0.62499   0.09112
H          H       0.39635   0.67606   0.87277   0.10362
H          H       0.60302   0.32425   0.62479   0.09079
H          H       0.32392   0.72089   0.87450   0.09337
H          H       0.67542   0.27936   0.62499   0.09184
