data_C378H162N270O54_2018-02-15_10:38:10
#******************************************
#
# CIF file created by Zeo++
# Zeo++ is an open source package to
# analyze microporous materials
#
#*******************************************

_cell_length_a		33.7541   
_cell_length_b		33.5932   
_cell_length_c		29.7506   
_cell_angle_alpha		90   
_cell_angle_beta		90   
_cell_angle_gamma		90.2808   

_symmetry_space_group_name_H-M		'P1'
_symmetry_Int_Tables_number		1
_symmetry_cell_setting		Monoclinic

loop_
_symmetry_equiv_pos_as_xyz
'+x,+y,+z'

loop_
_atom_site_label
_atom_site_type_symbol
_atom_site_fract_x
_atom_site_fract_y
_atom_site_fract_z
1	C	0.130605	0.421584	0.000395
2	N	0.102204	0.450045	0.998668
3	C	0.062746	0.44152	0.998419
4	N	0.052148	0.402261	0.000695
5	C	0.079493	0.37252	0.002157
6	N	0.118411	0.383073	0.001915
7	C	0.874029	0.577159	0.002079
8	N	0.90274	0.548834	0.001373
9	C	0.942036	0.558384	0.001888
10	N	0.95214	0.597741	0.002782
11	C	0.924429	0.627068	0.003158
12	N	0.885713	0.615893	0.002859
13	C	0.581362	0.128436	0.001542
14	N	0.552906	0.099813	0.999723
15	C	0.561059	0.060238	0.999431
16	N	0.600052	0.049672	0.001831
17	C	0.629863	0.077258	0.003434
18	N	0.619637	0.116371	0.003175
19	C	0.423254	0.871885	0.003273
20	N	0.45157	0.900832	0.002721
21	C	0.442406	0.940242	0.003303
22	N	0.403304	0.950304	0.004099
23	C	0.373894	0.922357	0.004405
24	N	0.384734	0.883429	0.004026
25	C	0.993415	0.154837	0.025748
26	N	0.000276	0.194335	0.019487
27	C	0.037784	0.209408	0.015318
28	N	0.068789	0.183263	0.016483
29	C	0.062934	0.143511	0.022092
30	N	0.025202	0.130469	0.027046
31	C	0.010121	0.844945	0.024467
32	N	0.003213	0.805454	0.018277
33	C	0.965683	0.790365	0.014516
34	N	0.934673	0.816481	0.01607
35	C	0.940585	0.856233	0.021611
36	N	0.978348	0.869298	0.026161
37	C	0.845818	0.990622	0.026397
38	N	0.806571	0.997585	0.020211
39	C	0.791944	0.035326	0.016427
40	N	0.818315	0.066452	0.017877
41	C	0.857824	0.060478	0.023454
42	N	0.87037	0.02252	0.027958
43	C	0.15778	0.009012	0.025039
44	N	0.197046	0.001987	0.019062
45	C	0.211649	0.964232	0.015209
46	N	0.18523	0.933142	0.016461
47	C	0.145709	0.939182	0.021852
48	N	0.133186	0.977143	0.02639
49	C	0.510424	0.655917	0.983135
50	N	0.502901	0.695217	0.989098
51	C	0.465132	0.709339	0.99256
52	N	0.434513	0.682497	0.990859
53	C	0.441101	0.642902	0.985454
54	N	0.479076	0.630753	0.981176
55	C	0.49385	0.344103	0.980695
56	N	0.501412	0.304797	0.986594
57	C	0.539199	0.29078	0.990433
58	N	0.56976	0.317699	0.989253
59	C	0.563106	0.357279	0.983942
60	N	0.525152	0.369344	0.979293
61	C	0.656672	0.493459	0.981008
62	N	0.695998	0.500196	0.987014
63	C	0.711142	0.537811	0.991088
64	N	0.68528	0.569103	0.990113
65	C	0.645669	0.563275	0.984812
66	N	0.632517	0.525436	0.979959
67	C	0.347511	0.506685	0.979969
68	N	0.308187	0.499708	0.985831
69	C	0.293205	0.461968	0.989384
70	N	0.319204	0.430815	0.988059
71	C	0.358778	0.436864	0.982853
72	N	0.371785	0.474807	0.978561
73	C	0.033672	0.472291	0.330112
74	N	0.995285	0.46178	0.00509
75	C	0.964476	0.487604	0.006813
76	C	0.971813	0.528648	0.33411
77	N	0.009993	0.53918	0.32555
78	C	0.041096	0.513639	0.32281
79	H	0.936688	0.476905	0.013363
80	C	0.077607	0.531149	0.310161
81	O	0.088076	0.566347	0.328956
82	N	0.097892	0.519054	0.273466
83	H	0.08892	0.4966	0.255406
84	H	0.121146	0.533742	0.26345
85	C	0.529929	0.031294	0.331035
86	N	0.539557	0.99278	0.00686
87	C	0.513183	0.96216	0.008787
88	C	0.472529	0.969894	0.335487
89	N	0.462879	0.008198	0.326073
90	C	0.488994	0.039095	0.32304
91	H	0.523197	0.934235	0.016011
92	C	0.472446	0.07576	0.309441
93	O	0.437257	0.086827	0.32719
94	N	0.485421	0.095611	0.272696
95	H	0.507864	0.086167	0.255219
96	H	0.471314	0.118889	0.261931
97	C	0.045442	0.251161	0.012563
98	N	0.082987	0.262317	0.334608
99	C	0.095616	0.300472	0.330443
100	C	0.068543	0.331722	0.004279
101	N	0.031039	0.320848	0.015701
102	C	0.018023	0.282584	0.02042
103	H	0.124485	0.305735	0.321912
104	C	0.978884	0.278201	0.036573
105	O	0.95038	0.301713	0.018968
106	N	0.970657	0.258854	0.075351
107	H	0.991271	0.245626	0.092577
108	H	0.944022	0.259325	0.087739
109	C	0.958061	0.748597	0.012006
110	N	0.920351	0.737267	0.334944
111	C	0.907775	0.699042	0.33124
112	C	0.935086	0.667943	0.004665
113	N	0.972733	0.679008	0.01519
114	C	0.985712	0.717305	0.019431
115	H	0.878777	0.6936	0.323435
116	C	0.025174	0.721824	0.034459
117	O	0.053381	0.698336	0.016197
118	N	0.034188	0.741036	0.073104
119	H	0.013893	0.754113	0.090963
120	H	0.061055	0.740512	0.084822
121	C	0.750434	0.043052	0.013697
122	N	0.739654	0.080939	0.336484
123	C	0.701786	0.09365	0.332443
124	C	0.670409	0.066317	0.005602
125	N	0.680913	0.028474	0.016285
126	C	0.718877	0.015366	0.020875
127	H	0.696823	0.122783	0.324483
128	C	0.722845	0.975765	0.036133
129	O	0.699343	0.947407	0.017666
130	N	0.74178	0.96684	0.074874
131	H	0.755001	0.987264	0.092674
132	H	0.741041	0.939855	0.086629
133	C	0.253171	0.956415	0.012872
134	N	0.26407	0.918484	0.335921
135	C	0.301991	0.905741	0.332382
136	C	0.333276	0.933104	0.005853
137	N	0.322635	0.970966	0.016272
138	C	0.284659	0.984103	0.020368
139	H	0.307087	0.876589	0.324638
140	C	0.280602	0.023782	0.035309
141	O	0.304351	0.052048	0.017058
142	N	0.261542	0.032922	0.073912
143	H	0.248259	0.012579	0.091775
144	H	0.262368	0.05993	0.085592
145	C	0.457009	0.750892	0.32806
146	N	0.419306	0.761644	0.005519
147	C	0.406534	0.799712	0.009082
148	C	0.43367	0.831112	0.33514
149	N	0.471232	0.820562	0.324103
150	C	0.484417	0.782512	0.319963
151	H	0.377608	0.804853	0.01723
152	C	0.523655	0.778651	0.304053
153	O	0.551965	0.802668	0.321678
154	N	0.53214	0.759251	0.265433
155	H	0.511673	0.745576	0.248219
156	H	0.558828	0.760034	0.253201
157	C	0.547479	0.249275	0.325943
158	N	0.585097	0.238648	0.003992
159	C	0.597988	0.200623	0.00771
160	C	0.571026	0.169186	0.333331
161	N	0.533579	0.17962	0.321677
162	C	0.520294	0.217581	0.317295
163	H	0.626822	0.195531	0.0163
164	C	0.481193	0.221236	0.300891
165	O	0.452928	0.196616	0.317544
166	N	0.472922	0.240829	0.26233
167	H	0.493459	0.254767	0.245497
168	H	0.446428	0.239703	0.249589
169	C	0.752746	0.54508	0.326725
170	N	0.764457	0.582627	0.004708
171	C	0.802665	0.594737	0.008447
172	C	0.833229	0.567061	0.334055
173	N	0.821753	0.529607	0.322571
174	C	0.783498	0.51708	0.318325
175	H	0.808492	0.623639	0.016965
176	C	0.778543	0.47787	0.30201
177	O	0.80161	0.448843	0.319372
178	N	0.759028	0.47002	0.263289
179	H	0.74603	0.490974	0.24627
180	H	0.759055	0.443294	0.250787
181	C	0.25166	0.454338	0.324922
182	N	0.240204	0.416693	0.002916
183	C	0.202079	0.404265	0.006656
184	C	0.17136	0.431741	0.332317
185	N	0.182589	0.469249	0.320738
186	C	0.220715	0.482082	0.316394
187	H	0.196411	0.375336	0.015181
188	C	0.22532	0.521352	0.30013
189	O	0.201418	0.550034	0.316767
190	N	0.245174	0.529518	0.261709
191	H	0.258606	0.508742	0.244847
192	H	0.244704	0.556181	0.249057
193	C	0.140815	0.046971	0.032198
194	N	0.147698	0.076257	0.334692
195	C	0.126358	0.110552	0.332151
196	C	0.093084	0.11487	0.027006
197	N	0.086868	0.085811	0.057891
198	C	0.109421	0.052919	0.063442
199	H	0.131947	0.13036	0.306855
200	C	0.098281	0.027157	0.099203
201	O	0.060288	0.027677	0.113755
202	N	0.124314	0.005342	0.123303
203	H	0.152678	0.006891	0.117842
204	H	0.11525	0.98991	0.148976
205	C	0.862807	0.952655	0.033313
206	N	0.855706	0.923578	0.33561
207	C	0.87697	0.889264	0.33263
208	C	0.910515	0.884861	0.027046
209	N	0.916939	0.913677	0.05816
210	C	0.894418	0.946517	0.064205
211	H	0.871255	0.869727	0.307104
212	C	0.905774	0.972064	0.100073
213	O	0.943807	0.971341	0.114472
214	N	0.8799	0.993792	0.1245
215	H	0.851502	0.992214	0.119261
216	H	0.889086	0.008921	0.150343
217	C	0.955564	0.137656	0.033072
218	N	0.926026	0.14535	0.336359
219	C	0.891441	0.12429	0.334097
220	C	0.886904	0.090508	0.028428
221	N	0.916223	0.083518	0.058561
222	C	0.94951	0.105721	0.063817
223	H	0.871444	0.130488	0.309321
224	C	0.97546	0.09381	0.098859
225	O	0.974994	0.055279	0.112164
226	N	0.997485	0.119549	0.123456
227	H	0.99601	0.148154	0.118817
228	H	0.013109	0.109952	0.148622
229	C	0.048011	0.862086	0.031622
230	N	0.077335	0.854507	0.33461
231	C	0.111953	0.875517	0.332282
232	C	0.116582	0.909206	0.02674
233	N	0.087512	0.916026	0.057227
234	C	0.054254	0.893801	0.062593
235	H	0.131709	0.869501	0.307207
236	C	0.028546	0.905434	0.097984
237	O	0.029217	0.943817	0.111816
238	N	0.00667	0.879509	0.122509
239	H	0.008206	0.850937	0.117616
240	H	0.991387	0.888877	0.148048
241	C	0.364693	0.544756	0.306735
242	N	0.356441	0.574179	0.003545
243	C	0.37736	0.608895	0.006612
244	C	0.411492	0.613577	0.313134
245	N	0.418996	0.584422	0.282832
246	C	0.396996	0.551046	0.276742
247	H	0.370721	0.628845	0.031372
248	C	0.409485	0.525311	0.241666
249	O	0.448061	0.525948	0.229233
250	N	0.384303	0.503441	0.216219
251	H	0.355759	0.504861	0.220262
252	H	0.394289	0.488003	0.191067
253	C	0.639476	0.455541	0.307012
254	N	0.647652	0.425775	0.003417
255	C	0.626771	0.391003	0.005842
256	C	0.592645	0.386743	0.312276
257	N	0.585249	0.416211	0.282332
258	C	0.607267	0.449643	0.276817
259	H	0.633303	0.370844	0.030421
260	C	0.594931	0.475798	0.242075
261	O	0.556455	0.475158	0.229241
262	N	0.620201	0.498041	0.217145
263	H	0.648726	0.496517	0.221296
264	H	0.610343	0.513618	0.19204
265	C	0.548528	0.639883	0.30909
266	N	0.577224	0.646575	0.00719
267	C	0.6118	0.625869	0.009366
268	C	0.617099	0.593442	0.313288
269	N	0.588542	0.587345	0.281916
270	C	0.555353	0.609404	0.276805
271	H	0.631074	0.631072	0.035206
272	C	0.530074	0.59861	0.240566
273	O	0.531291	0.56081	0.224885
274	N	0.507927	0.624925	0.217216
275	H	0.508927	0.653303	0.223556
276	H	0.492813	0.616161	0.191208
277	C	0.455797	0.360226	0.306501
278	N	0.426948	0.353144	0.004305
279	C	0.392384	0.373871	0.006569
280	C	0.387461	0.406837	0.311173
281	N	0.416117	0.413258	0.280008
282	C	0.449241	0.391149	0.27469
283	H	0.373041	0.368394	0.032268
284	C	0.474696	0.402303	0.238746
285	O	0.473444	0.44021	0.223399
286	N	0.496984	0.376232	0.215209
287	H	0.495871	0.347785	0.221144
288	H	0.512063	0.385219	0.189275
289	C	0.130605	0.421584	0.333728
290	N	0.102204	0.450045	0.332002
291	C	0.062746	0.44152	0.331752
292	N	0.052148	0.402261	0.334025
293	C	0.079493	0.37252	0.335488
294	N	0.118411	0.383073	0.335246
295	C	0.874029	0.577159	0.335413
296	N	0.90274	0.548834	0.334705
297	C	0.942036	0.558384	0.335221
298	N	0.95214	0.597741	0.336114
299	C	0.924429	0.627068	0.33649
300	N	0.885713	0.615893	0.336191
301	C	0.581362	0.128436	0.334873
302	N	0.552906	0.099813	0.333055
303	C	0.561059	0.060238	0.332762
304	N	0.600052	0.049672	0.335165
305	C	0.629863	0.077258	0.336769
306	N	0.619637	0.116371	0.336507
307	C	0.423254	0.871885	0.336605
308	N	0.45157	0.900832	0.336055
309	C	0.442406	0.940242	0.336635
310	N	0.403304	0.950304	0.337431
311	C	0.373894	0.922357	0.337737
312	N	0.384734	0.883429	0.337361
313	C	0.993415	0.154837	0.359081
314	N	0.000276	0.194335	0.352819
315	C	0.037784	0.209408	0.348651
316	N	0.068789	0.183263	0.349818
317	C	0.062934	0.143511	0.355424
318	N	0.025202	0.130469	0.360379
319	C	0.010121	0.844945	0.357801
320	N	0.003213	0.805454	0.351613
321	C	0.965683	0.790365	0.347851
322	N	0.934673	0.816481	0.349404
323	C	0.940585	0.856233	0.354944
324	N	0.978348	0.869298	0.359495
325	C	0.845818	0.990622	0.35973
326	N	0.806571	0.997585	0.353545
327	C	0.791944	0.035326	0.349761
328	N	0.818315	0.066452	0.351209
329	C	0.857824	0.060478	0.356789
330	N	0.87037	0.02252	0.36129
331	C	0.15778	0.009012	0.358372
332	N	0.197046	0.001987	0.352396
333	C	0.211649	0.964232	0.348544
334	N	0.18523	0.933142	0.349794
335	C	0.145709	0.939182	0.355186
336	N	0.133186	0.977143	0.359723
337	C	0.510424	0.655917	0.316467
338	N	0.502901	0.695217	0.322429
339	C	0.465132	0.709339	0.325891
340	N	0.434513	0.682497	0.324191
341	C	0.441101	0.642902	0.318785
342	N	0.479076	0.630753	0.314509
343	C	0.49385	0.344103	0.314026
344	N	0.501412	0.304797	0.319926
345	C	0.539199	0.29078	0.323766
346	N	0.56976	0.317699	0.322585
347	C	0.563106	0.357279	0.317275
348	N	0.525152	0.369344	0.312625
349	C	0.656672	0.493459	0.314341
350	N	0.695998	0.500196	0.320347
351	C	0.711142	0.537811	0.324421
352	N	0.68528	0.569103	0.323446
353	C	0.645669	0.563275	0.318146
354	N	0.632517	0.525436	0.313292
355	C	0.347511	0.506685	0.313301
356	N	0.308187	0.499708	0.319162
357	C	0.293205	0.461968	0.322715
358	N	0.319204	0.430815	0.321393
359	C	0.358778	0.436864	0.316186
360	N	0.371785	0.474807	0.311894
361	C	0.033672	0.472291	0.663445
362	N	0.995285	0.46178	0.338423
363	C	0.964476	0.487604	0.340147
364	C	0.971813	0.528648	0.667445
365	N	0.009993	0.53918	0.658883
366	C	0.041096	0.513639	0.656144
367	H	0.936688	0.476905	0.346695
368	C	0.077607	0.531149	0.643495
369	O	0.088076	0.566347	0.662288
370	N	0.097892	0.519054	0.6068
371	H	0.08892	0.4966	0.58874
372	H	0.121146	0.533742	0.596784
373	C	0.529929	0.031294	0.664369
374	N	0.539557	0.99278	0.340194
375	C	0.513183	0.96216	0.34212
376	C	0.472529	0.969894	0.668823
377	N	0.462879	0.008198	0.659408
378	C	0.488994	0.039095	0.656376
379	H	0.523197	0.934235	0.349344
380	C	0.472446	0.07576	0.642776
381	O	0.437257	0.086827	0.660524
382	N	0.485421	0.095611	0.606031
383	H	0.507864	0.086167	0.588552
384	H	0.471314	0.118889	0.595265
385	C	0.045442	0.251161	0.345895
386	N	0.082987	0.262317	0.667942
387	C	0.095616	0.300472	0.663777
388	C	0.068543	0.331722	0.337613
389	N	0.031039	0.320848	0.349035
390	C	0.018023	0.282584	0.353754
391	H	0.124485	0.305735	0.655246
392	C	0.978884	0.278201	0.369908
393	O	0.95038	0.301713	0.352302
394	N	0.970657	0.258854	0.408684
395	H	0.991271	0.245626	0.42591
396	H	0.944022	0.259325	0.421073
397	C	0.958061	0.748597	0.34534
398	N	0.920351	0.737267	0.668278
399	C	0.907775	0.699042	0.664574
400	C	0.935086	0.667943	0.337999
401	N	0.972733	0.679008	0.348524
402	C	0.985712	0.717305	0.352766
403	H	0.878777	0.6936	0.656769
404	C	0.025174	0.721824	0.367794
405	O	0.053381	0.698336	0.349532
406	N	0.034188	0.741036	0.406438
407	H	0.013893	0.754113	0.424297
408	H	0.061055	0.740512	0.418156
409	C	0.750434	0.043052	0.347031
410	N	0.739654	0.080939	0.669818
411	C	0.701786	0.09365	0.665777
412	C	0.670409	0.066317	0.338934
413	N	0.680913	0.028474	0.349619
414	C	0.718877	0.015366	0.354208
415	H	0.696823	0.122783	0.657818
416	C	0.722845	0.975765	0.369468
417	O	0.699343	0.947407	0.351001
418	N	0.74178	0.96684	0.408206
419	H	0.755001	0.987264	0.426008
420	H	0.741041	0.939855	0.419964
421	C	0.253171	0.956415	0.346204
422	N	0.26407	0.918484	0.669256
423	C	0.301991	0.905741	0.665717
424	C	0.333276	0.933104	0.339186
425	N	0.322635	0.970966	0.349606
426	C	0.284659	0.984103	0.3537
427	H	0.307087	0.876589	0.657972
428	C	0.280602	0.023782	0.368644
429	O	0.304351	0.052048	0.350392
430	N	0.261542	0.032922	0.407245
431	H	0.248259	0.012579	0.425107
432	H	0.262368	0.05993	0.418925
433	C	0.457009	0.750892	0.661394
434	N	0.419306	0.761644	0.338853
435	C	0.406534	0.799712	0.342416
436	C	0.43367	0.831112	0.668473
437	N	0.471232	0.820562	0.657435
438	C	0.484417	0.782512	0.653297
439	H	0.377608	0.804853	0.350564
440	C	0.523655	0.778651	0.637388
441	O	0.551965	0.802668	0.655011
442	N	0.53214	0.759251	0.598767
443	H	0.511673	0.745576	0.581554
444	H	0.558828	0.760034	0.586535
445	C	0.547479	0.249275	0.659277
446	N	0.585097	0.238648	0.337324
447	C	0.597988	0.200623	0.341045
448	C	0.571026	0.169186	0.666665
449	N	0.533579	0.17962	0.655011
450	C	0.520294	0.217581	0.650628
451	H	0.626822	0.195531	0.349633
452	C	0.481193	0.221236	0.634225
453	O	0.452928	0.196616	0.650877
454	N	0.472922	0.240829	0.595665
455	H	0.493459	0.254767	0.578831
456	H	0.446428	0.239703	0.582922
457	C	0.752746	0.54508	0.66006
458	N	0.764457	0.582627	0.33804
459	C	0.802665	0.594737	0.341781
460	C	0.833229	0.567061	0.667387
461	N	0.821753	0.529607	0.655905
462	C	0.783498	0.51708	0.65166
463	H	0.808492	0.623639	0.350298
464	C	0.778543	0.47787	0.635344
465	O	0.80161	0.448843	0.652705
466	N	0.759028	0.47002	0.596622
467	H	0.74603	0.490974	0.579604
468	H	0.759055	0.443294	0.584122
469	C	0.25166	0.454338	0.658255
470	N	0.240204	0.416693	0.336248
471	C	0.202079	0.404265	0.339989
472	C	0.17136	0.431741	0.66565
473	N	0.182589	0.469249	0.654073
474	C	0.220715	0.482082	0.649727
475	H	0.196411	0.375336	0.348514
476	C	0.22532	0.521352	0.633465
477	O	0.201418	0.550034	0.6501
478	N	0.245174	0.529518	0.595043
479	H	0.258606	0.508742	0.578183
480	H	0.244704	0.556181	0.582391
481	C	0.140815	0.046971	0.365532
482	N	0.147698	0.076257	0.668026
483	C	0.126358	0.110552	0.665485
484	C	0.093084	0.11487	0.360338
485	N	0.086868	0.085811	0.391225
486	C	0.109421	0.052919	0.396775
487	H	0.131947	0.13036	0.640188
488	C	0.098281	0.027157	0.432539
489	O	0.060288	0.027677	0.44709
490	N	0.124314	0.005342	0.456636
491	H	0.152678	0.006891	0.451177
492	H	0.11525	0.98991	0.482309
493	C	0.862807	0.952655	0.366648
494	N	0.855706	0.923578	0.668944
495	C	0.87697	0.889264	0.665962
496	C	0.910515	0.884861	0.360379
497	N	0.916939	0.913677	0.391494
498	C	0.894418	0.946517	0.397538
499	H	0.871255	0.869727	0.640437
500	C	0.905774	0.972064	0.433406
501	O	0.943807	0.971341	0.447806
502	N	0.8799	0.993792	0.457832
503	H	0.851502	0.992214	0.452595
504	H	0.889086	0.008921	0.483677
505	C	0.955564	0.137656	0.366406
506	N	0.926026	0.14535	0.669693
507	C	0.891441	0.12429	0.667431
508	C	0.886904	0.090508	0.36176
509	N	0.916223	0.083518	0.391894
510	C	0.94951	0.105721	0.397151
511	H	0.871444	0.130488	0.642655
512	C	0.97546	0.09381	0.432192
513	O	0.974994	0.055279	0.445496
514	N	0.997485	0.119549	0.45679
515	H	0.99601	0.148154	0.452152
516	H	0.013109	0.109952	0.481956
517	C	0.048011	0.862086	0.364957
518	N	0.077335	0.854507	0.667945
519	C	0.111953	0.875517	0.665616
520	C	0.116582	0.909206	0.360073
521	N	0.087512	0.916026	0.39056
522	C	0.054254	0.893801	0.395928
523	H	0.131709	0.869501	0.640541
524	C	0.028546	0.905434	0.431318
525	O	0.029217	0.943817	0.44515
526	N	0.00667	0.879509	0.455842
527	H	0.008206	0.850937	0.450948
528	H	0.991387	0.888877	0.481381
529	C	0.364693	0.544756	0.64007
530	N	0.356441	0.574179	0.336877
531	C	0.37736	0.608895	0.339946
532	C	0.411492	0.613577	0.646467
533	N	0.418996	0.584422	0.616165
534	C	0.396996	0.551046	0.610074
535	H	0.370721	0.628845	0.364705
536	C	0.409485	0.525311	0.574999
537	O	0.448061	0.525948	0.562566
538	N	0.384303	0.503441	0.549551
539	H	0.355759	0.504861	0.553595
540	H	0.394289	0.488003	0.524402
541	C	0.639476	0.455541	0.640346
542	N	0.647652	0.425775	0.336749
543	C	0.626771	0.391003	0.339176
544	C	0.592645	0.386743	0.64561
545	N	0.585249	0.416211	0.615667
546	C	0.607267	0.449643	0.610152
547	H	0.633303	0.370844	0.363754
548	C	0.594931	0.475798	0.57541
549	O	0.556455	0.475158	0.562576
550	N	0.620201	0.498041	0.550479
551	H	0.648726	0.496517	0.55463
552	H	0.610343	0.513618	0.525374
553	C	0.548528	0.639883	0.642423
554	N	0.577224	0.646575	0.340524
555	C	0.6118	0.625869	0.342699
556	C	0.617099	0.593442	0.646621
557	N	0.588542	0.587345	0.615251
558	C	0.555353	0.609404	0.610138
559	H	0.631074	0.631072	0.36854
560	C	0.530074	0.59861	0.5739
561	O	0.531291	0.56081	0.55822
562	N	0.507927	0.624925	0.55055
563	H	0.508927	0.653303	0.556889
564	H	0.492813	0.616161	0.52454
565	C	0.455797	0.360226	0.639835
566	N	0.426948	0.353144	0.33764
567	C	0.392384	0.373871	0.339902
568	C	0.387461	0.406837	0.644507
569	N	0.416117	0.413258	0.613341
570	C	0.449241	0.391149	0.608024
571	H	0.373041	0.368394	0.365602
572	C	0.474696	0.402303	0.572078
573	O	0.473444	0.44021	0.556731
574	N	0.496984	0.376232	0.548543
575	H	0.495871	0.347785	0.554479
576	H	0.512063	0.385219	0.522607
577	C	0.130605	0.421584	0.667061
578	N	0.102204	0.450045	0.665334
579	C	0.062746	0.44152	0.665085
580	N	0.052148	0.402261	0.66736
581	C	0.079493	0.37252	0.668823
582	N	0.118411	0.383073	0.668581
583	C	0.874029	0.577159	0.668749
584	N	0.90274	0.548834	0.668039
585	C	0.942036	0.558384	0.668554
586	N	0.95214	0.597741	0.669448
587	C	0.924429	0.627068	0.669824
588	N	0.885713	0.615893	0.669525
589	C	0.581362	0.128436	0.668208
590	N	0.552906	0.099813	0.666389
591	C	0.561059	0.060238	0.666097
592	N	0.600052	0.049672	0.6685
593	C	0.629863	0.077258	0.670103
594	N	0.619637	0.116371	0.669841
595	C	0.423254	0.871885	0.669939
596	N	0.45157	0.900832	0.669391
597	C	0.442406	0.940242	0.669969
598	N	0.403304	0.950304	0.670765
599	C	0.373894	0.922357	0.671071
600	N	0.384734	0.883429	0.670695
601	C	0.993415	0.154837	0.692415
602	N	0.000276	0.194335	0.686153
603	C	0.037784	0.209408	0.681985
604	N	0.068789	0.183263	0.683152
605	C	0.062934	0.143511	0.688758
606	N	0.025202	0.130469	0.693713
607	C	0.010121	0.844945	0.691135
608	N	0.003213	0.805454	0.684943
609	C	0.965683	0.790365	0.681182
610	N	0.934673	0.816481	0.682738
611	C	0.940585	0.856233	0.688278
612	N	0.978348	0.869298	0.692829
613	C	0.845818	0.990622	0.693064
614	N	0.806571	0.997585	0.686879
615	C	0.791944	0.035326	0.683095
616	N	0.818315	0.066452	0.684543
617	C	0.857824	0.060478	0.690123
618	N	0.87037	0.02252	0.694624
619	C	0.15778	0.009012	0.691706
620	N	0.197046	0.001987	0.68573
621	C	0.211649	0.964232	0.681878
622	N	0.18523	0.933142	0.683128
623	C	0.145709	0.939182	0.68852
624	N	0.133186	0.977143	0.693057
625	C	0.510424	0.655917	0.649801
626	N	0.502901	0.695217	0.655764
627	C	0.465132	0.709339	0.659226
628	N	0.434513	0.682497	0.657525
629	C	0.441101	0.642902	0.65212
630	N	0.479076	0.630753	0.647842
631	C	0.49385	0.344103	0.647361
632	N	0.501412	0.304797	0.65326
633	C	0.539199	0.29078	0.657099
634	N	0.56976	0.317699	0.655919
635	C	0.563106	0.357279	0.650608
636	N	0.525152	0.369344	0.645959
637	C	0.656672	0.493459	0.647674
638	N	0.695998	0.500196	0.65368
639	C	0.711142	0.537811	0.657754
640	N	0.68528	0.569103	0.656779
641	C	0.645669	0.563275	0.651482
642	N	0.632517	0.525436	0.646625
643	C	0.347511	0.506685	0.646635
644	N	0.308187	0.499708	0.652497
645	C	0.293205	0.461968	0.65605
646	N	0.319204	0.430815	0.654729
647	C	0.358778	0.436864	0.649519
648	N	0.371785	0.474807	0.645226
649	C	0.033672	0.472291	0.996779
650	N	0.995285	0.46178	0.671757
651	C	0.964476	0.487604	0.673481
652	C	0.971813	0.528648	0.000779
653	N	0.009993	0.53918	0.992217
654	C	0.041096	0.513639	0.989478
655	H	0.936688	0.476905	0.680029
656	C	0.077607	0.531149	0.976829
657	O	0.088076	0.566347	0.995622
658	N	0.097892	0.519054	0.940134
659	H	0.08892	0.4966	0.922074
660	H	0.121146	0.533742	0.930118
661	C	0.529929	0.031294	0.997703
662	N	0.539557	0.99278	0.673528
663	C	0.513183	0.96216	0.675454
664	C	0.472529	0.969894	0.002153
665	N	0.462879	0.008198	0.992742
666	C	0.488994	0.039095	0.989707
667	H	0.523197	0.934235	0.682678
668	C	0.472446	0.07576	0.97611
669	O	0.437257	0.086827	0.993858
670	N	0.485421	0.095611	0.939365
671	H	0.507864	0.086167	0.921886
672	H	0.471314	0.118889	0.928599
673	C	0.045442	0.251161	0.679229
674	N	0.082987	0.262317	0.001276
675	C	0.095616	0.300472	0.997111
676	C	0.068543	0.331722	0.670947
677	N	0.031039	0.320848	0.682369
678	C	0.018023	0.282584	0.687088
679	H	0.124485	0.305735	0.98858
680	C	0.978884	0.278201	0.703242
681	O	0.95038	0.301713	0.685636
682	N	0.970657	0.258854	0.742018
683	H	0.991271	0.245626	0.759244
684	H	0.944022	0.259325	0.754407
685	C	0.958061	0.748597	0.678675
686	N	0.920351	0.737267	0.001612
687	C	0.907775	0.699042	0.997908
688	C	0.935086	0.667943	0.671334
689	N	0.972733	0.679008	0.681858
690	C	0.985712	0.717305	0.6861
691	H	0.878777	0.6936	0.990103
692	C	0.025174	0.721824	0.701128
693	O	0.053381	0.698336	0.682866
694	N	0.034188	0.741036	0.739772
695	H	0.013893	0.754113	0.757631
696	H	0.061055	0.740512	0.75149
697	C	0.750434	0.043052	0.680365
698	N	0.739654	0.080939	0.003152
699	C	0.701786	0.09365	0.999111
700	C	0.670409	0.066317	0.672268
701	N	0.680913	0.028474	0.682953
702	C	0.718877	0.015366	0.687542
703	H	0.696823	0.122783	0.991152
704	C	0.722845	0.975765	0.702802
705	O	0.699343	0.947407	0.684335
706	N	0.74178	0.96684	0.74154
707	H	0.755001	0.987264	0.759342
708	H	0.741041	0.939855	0.753298
709	C	0.253171	0.956415	0.679538
710	N	0.26407	0.918484	0.00259
711	C	0.301991	0.905741	0.999051
712	C	0.333276	0.933104	0.67252
713	N	0.322635	0.970966	0.68294
714	C	0.284659	0.984103	0.687034
715	H	0.307087	0.876589	0.991306
716	C	0.280602	0.023782	0.701978
717	O	0.304351	0.052048	0.683727
718	N	0.261542	0.032922	0.740579
719	H	0.248259	0.012579	0.758441
720	H	0.262368	0.05993	0.752259
721	C	0.457009	0.750892	0.994728
722	N	0.419306	0.761644	0.672187
723	C	0.406534	0.799712	0.67575
724	C	0.43367	0.831112	0.001807
725	N	0.471232	0.820562	0.990769
726	C	0.484417	0.782512	0.986631
727	H	0.377608	0.804853	0.683898
728	C	0.523655	0.778651	0.970722
729	O	0.551965	0.802668	0.988345
730	N	0.53214	0.759251	0.932101
731	H	0.511673	0.745576	0.914888
732	H	0.558828	0.760034	0.919869
733	C	0.547479	0.249275	0.992611
734	N	0.585097	0.238648	0.670658
735	C	0.597988	0.200623	0.674375
736	C	0.571026	0.169186	0.999999
737	N	0.533579	0.17962	0.988345
738	C	0.520294	0.217581	0.983962
739	H	0.626822	0.195531	0.682967
740	C	0.481193	0.221236	0.967559
741	O	0.452928	0.196616	0.984211
742	N	0.472922	0.240829	0.928999
743	H	0.493459	0.254767	0.912165
744	H	0.446428	0.239703	0.916256
745	C	0.752746	0.54508	0.993394
746	N	0.764457	0.582627	0.671374
747	C	0.802665	0.594737	0.675115
748	C	0.833229	0.567061	0.000721
749	N	0.821753	0.529607	0.989239
750	C	0.783498	0.51708	0.984994
751	H	0.808492	0.623639	0.683632
752	C	0.778543	0.47787	0.968678
753	O	0.80161	0.448843	0.986039
754	N	0.759028	0.47002	0.929957
755	H	0.74603	0.490974	0.912938
756	H	0.759055	0.443294	0.917456
757	C	0.25166	0.454338	0.991589
758	N	0.240204	0.416693	0.669582
759	C	0.202079	0.404265	0.673323
760	C	0.17136	0.431741	0.998984
761	N	0.182589	0.469249	0.987404
762	C	0.220715	0.482082	0.983061
763	H	0.196411	0.375336	0.681848
764	C	0.22532	0.521352	0.966796
765	O	0.201418	0.550034	0.983434
766	N	0.245174	0.529518	0.928377
767	H	0.258606	0.508742	0.911513
768	H	0.244704	0.556181	0.915725
769	C	0.140815	0.046971	0.698866
770	N	0.147698	0.076257	0.00136
771	C	0.126358	0.110552	0.998819
772	C	0.093084	0.11487	0.693673
773	N	0.086868	0.085811	0.724559
774	C	0.109421	0.052919	0.730109
775	H	0.131947	0.13036	0.973522
776	C	0.098281	0.027157	0.765869
777	O	0.060288	0.027677	0.780424
778	N	0.124314	0.005342	0.78997
779	H	0.152678	0.006891	0.784508
780	H	0.11525	0.98991	0.815643
781	C	0.862807	0.952655	0.699982
782	N	0.855706	0.923578	0.002278
783	C	0.87697	0.889264	0.999296
784	C	0.910515	0.884861	0.693713
785	N	0.916939	0.913677	0.724828
786	C	0.894418	0.946517	0.730872
787	H	0.871255	0.869727	0.973771
788	C	0.905774	0.972064	0.76674
789	O	0.943807	0.971341	0.78114
790	N	0.8799	0.993792	0.791166
791	H	0.851502	0.992214	0.785929
792	H	0.889086	0.008921	0.817011
793	C	0.955564	0.137656	0.69974
794	N	0.926026	0.14535	0.003027
795	C	0.891441	0.12429	0.000765
796	C	0.886904	0.090508	0.695094
797	N	0.916223	0.083518	0.725228
798	C	0.94951	0.105721	0.730485
799	H	0.871444	0.130488	0.975989
800	C	0.97546	0.09381	0.765526
801	O	0.974994	0.055279	0.77883
802	N	0.997485	0.119549	0.790124
803	H	0.99601	0.148154	0.785486
804	H	0.013109	0.109952	0.81529
805	C	0.048011	0.862086	0.698291
806	N	0.077335	0.854507	0.001276
807	C	0.111953	0.875517	0.99895
808	C	0.116582	0.909206	0.693407
809	N	0.087512	0.916026	0.723894
810	C	0.054254	0.893801	0.729262
811	H	0.131709	0.869501	0.973875
812	C	0.028546	0.905434	0.764653
813	O	0.029217	0.943817	0.778484
814	N	0.00667	0.879509	0.789176
815	H	0.008206	0.850937	0.784282
816	H	0.991387	0.888877	0.814715
817	C	0.364693	0.544756	0.973404
818	N	0.356441	0.574179	0.670211
819	C	0.37736	0.608895	0.67328
820	C	0.411492	0.613577	0.979801
821	N	0.418996	0.584422	0.949499
822	C	0.396996	0.551046	0.943408
823	H	0.370721	0.628845	0.698039
824	C	0.409485	0.525311	0.908333
825	O	0.448061	0.525948	0.8959
826	N	0.384303	0.503441	0.882885
827	H	0.355759	0.504861	0.886929
828	H	0.394289	0.488003	0.857736
829	C	0.639476	0.455541	0.97368
830	N	0.647652	0.425775	0.670083
831	C	0.626771	0.391003	0.67251
832	C	0.592645	0.386743	0.978944
833	N	0.585249	0.416211	0.949001
834	C	0.607267	0.449643	0.943486
835	H	0.633303	0.370844	0.697088
836	C	0.594931	0.475798	0.908744
837	O	0.556455	0.475158	0.895907
838	N	0.620201	0.498041	0.883813
839	H	0.648726	0.496517	0.887964
840	H	0.610343	0.513618	0.858708
841	C	0.548528	0.639883	0.975757
842	N	0.577224	0.646575	0.673858
843	C	0.6118	0.625869	0.676033
844	C	0.617099	0.593442	0.979955
845	N	0.588542	0.587345	0.948585
846	C	0.555353	0.609404	0.943472
847	H	0.631074	0.631072	0.701874
848	C	0.530074	0.59861	0.907234
849	O	0.531291	0.56081	0.891551
850	N	0.507927	0.624925	0.883884
851	H	0.508927	0.653303	0.890223
852	H	0.492813	0.616161	0.857874
853	C	0.455797	0.360226	0.973169
854	N	0.426948	0.353144	0.670974
855	C	0.392384	0.373871	0.673236
856	C	0.387461	0.406837	0.977841
857	N	0.416117	0.413258	0.946675
858	C	0.449241	0.391149	0.941358
859	H	0.373041	0.368394	0.698936
860	C	0.474696	0.402303	0.905413
861	O	0.473444	0.44021	0.890065
862	N	0.496984	0.376232	0.881877
863	H	0.495871	0.347785	0.887813
864	H	0.512063	0.385219	0.855941
